data_acs-i_P6322  hall_number: 476, V_con: 5
_audit_creation_date              2025-03-05
_audit_creation_method            'MOFbuilder_1.0'
_symmetry_space_group_name_H-M    'P1'
_symmetry_Int_Tables_number       1
_symmetry_cell_setting            triclinic
loop_
_symmetry_equiv_pos_as_xyz
  x,y,z
_cell_length_a                    31.6541
_cell_length_b                    31.6541
_cell_length_c                    27.558
_cell_angle_alpha                 90.0
_cell_angle_beta                  90.0
_cell_angle_gamma                 120.0
loop_
_atom_site_label
_atom_site_type_symbol
_atom_site_fract_x
_atom_site_fract_y
_atom_site_fract_z
V1    V   0.15094  0.48427  0.39814
V2    V   0.15094  0.66667  0.10186
V3    V   0.33333  0.48427  0.10186
V4    V   0.33333  0.84906  0.39814
V5    V   0.48427  0.15094  0.60186
V6    V   0.48427  0.33333  0.89814
V7    V   0.51573  0.66667  0.39814
V8    V   0.51573  0.84906  0.10186
V9    V   0.66667  0.15094  0.89814
V10   V   0.66667  0.51573  0.60186
V11   V   0.84906  0.33333  0.60186
V12   V   0.84906  0.51573  0.89814
E1    E   0.00000  0.40880  0.50000
E2    E   0.00000  0.59120  0.00000
E3    E   0.15094  0.57547  0.25000
E4    E   0.15094  0.57547  0.25000
E5    E   0.24213  0.48427  0.25000
E6    E   0.24213  0.75786  0.25000
E7    E   0.24214  0.48427  0.25000
E8    E   0.24214  0.57547  0.10186
E9    E   0.24214  0.66667  0.39814
E10   E   0.24214  0.75787  0.25000
E11   E   0.33333  0.57547  0.39814
E12   E   0.33333  0.75786  0.10186
E13   E   0.40880  0.00000  0.50000
E14   E   0.40880  0.40880  0.00000
E15   E   0.42453  0.57547  0.25000
E16   E   0.42453  0.66667  0.10186
E17   E   0.42453  0.75786  0.39814
E18   E   0.42453  0.84906  0.25000
E19   E   0.42453  0.57547  0.25000
E20   E   0.42453  0.84906  0.25000
E21   E   0.48427  0.24213  0.75000
E22   E   0.48427  0.24214  0.75000
E23   E   0.51573  0.75786  0.25000
E24   E   0.51573  0.75787  0.25000
E25   E   0.57547  0.15094  0.75000
E26   E   0.57547  0.42453  0.75000
E27   E   0.57547  0.15094  0.75000
E28   E   0.57547  0.24214  0.89814
E29   E   0.57547  0.33333  0.60186
E30   E   0.57547  0.42453  0.75000
E31   E   0.59120  0.00000  0.00000
E32   E   0.59120  0.59120  0.50000
E33   E   0.66667  0.24214  0.60186
E34   E   0.66667  0.42453  0.89814
E35   E   0.75786  0.24213  0.75000
E36   E   0.75786  0.33333  0.89814
E37   E   0.75786  0.42453  0.60186
E38   E   0.75786  0.51573  0.75000
E39   E   0.75787  0.24214  0.75000
E40   E   0.75787  0.51573  0.75000
E41   E   0.84906  0.42453  0.75000
E42   E   0.84906  0.42453  0.75000
loop_
