data_alb-a_P6/mmm  hall_number: 485, V_con: 4, EC_con: 4
_audit_creation_date              2025-03-05
_audit_creation_method            'MOFbuilder_1.0'
_symmetry_space_group_name_H-M    'P1'
_symmetry_Int_Tables_number       1
_symmetry_cell_setting            triclinic
loop_
_symmetry_equiv_pos_as_xyz
  x,y,z
_cell_length_a                    41.1464
_cell_length_b                    41.1464
_cell_length_c                    32.0469
_cell_angle_alpha                 90.0
_cell_angle_beta                  90.0
_cell_angle_gamma                 120.0
loop_
_atom_site_label
_atom_site_type_symbol
_atom_site_fract_x
_atom_site_fract_y
_atom_site_fract_z
V1    V   0.25232  0.50464  0.15602
V2    V   0.25232  0.50464  0.84398
V3    V   0.25232  0.74768  0.15602
V4    V   0.25232  0.74768  0.84398
V5    V   0.49536  0.74768  0.15602
V6    V   0.49536  0.74768  0.84398
V7    V   0.50464  0.25232  0.15602
V8    V   0.50464  0.25232  0.84398
V9    V   0.74768  0.25232  0.15602
V10   V   0.74768  0.25232  0.84398
V11   V   0.74768  0.49536  0.15602
V12   V   0.74768  0.49536  0.84398
EC1    EC   0.14031  0.28063  0.34398
EC2    EC   0.14031  0.28063  0.65602
EC3    EC   0.14031  0.85968  0.34398
EC4    EC   0.14031  0.85968  0.65602
EC5    EC   0.14032  0.28063  0.34398
EC6    EC   0.14032  0.28063  0.65602
EC7    EC   0.14032  0.85969  0.34398
EC8    EC   0.14032  0.85969  0.65602
EC9    EC   0.28063  0.14031  0.34398
EC10   EC   0.28063  0.14031  0.65602
EC11   EC   0.28063  0.14032  0.34398
EC12   EC   0.28063  0.14032  0.65602
EC13   EC   0.71937  0.85968  0.34398
EC14   EC   0.71937  0.85968  0.65602
EC15   EC   0.71937  0.85969  0.34398
EC16   EC   0.71937  0.85969  0.65602
EC17   EC   0.85968  0.14031  0.34398
EC18   EC   0.85968  0.14031  0.65602
EC19   EC   0.85968  0.71937  0.34398
EC20   EC   0.85968  0.71937  0.65602
EC21   EC   0.85969  0.14032  0.34398
EC22   EC   0.85969  0.14032  0.65602
EC23   EC   0.85969  0.71937  0.34398
EC24   EC   0.85969  0.71937  0.65602
E1    E   0.00000  0.21047  0.34398
E2    E   0.00000  0.21047  0.65602
E3    E   0.00000  0.78953  0.34398
E4    E   0.00000  0.78953  0.65602
E5    E   0.14031  0.28063  0.50000
E6    E   0.14031  0.85968  0.50000
E7    E   0.14032  0.28063  0.50000
E8    E   0.14032  0.85969  0.50000
E9    E   0.19632  0.39264  0.25000
E10   E   0.19632  0.39264  0.75000
E11   E   0.19632  0.80368  0.25000
E12   E   0.19632  0.80368  0.75000
E13   E   0.21047  0.00000  0.34398
E14   E   0.21047  0.00000  0.65602
E15   E   0.21047  0.21047  0.34398
E16   E   0.21047  0.21047  0.65602
E17   E   0.25232  0.50464  0.00000
E18   E   0.25232  0.62616  0.15602
E19   E   0.25232  0.62616  0.84398
E20   E   0.25232  0.62616  0.15602
E21   E   0.25232  0.62616  0.84398
E22   E   0.25232  0.74768  0.00000
E23   E   0.28063  0.14031  0.50000
E24   E   0.28063  0.14032  0.50000
E25   E   0.37384  0.62616  0.15602
E26   E   0.37384  0.62616  0.84398
E27   E   0.37384  0.74768  0.15602
E28   E   0.37384  0.74768  0.84398
E29   E   0.37384  0.62616  0.15602
E30   E   0.37384  0.62616  0.84398
E31   E   0.37384  0.74768  0.15602
E32   E   0.37384  0.74768  0.84398
E33   E   0.39264  0.19632  0.25000
E34   E   0.39264  0.19632  0.75000
E35   E   0.49536  0.74768  0.00000
E36   E   0.50464  0.25232  0.00000
E37   E   0.60736  0.80368  0.25000
E38   E   0.60736  0.80368  0.75000
E39   E   0.62616  0.25232  0.15602
E40   E   0.62616  0.25232  0.84398
E41   E   0.62616  0.37384  0.15602
E42   E   0.62616  0.37384  0.84398
E43   E   0.62616  0.25232  0.15602
E44   E   0.62616  0.25232  0.84398
E45   E   0.62616  0.37384  0.15602
E46   E   0.62616  0.37384  0.84398
E47   E   0.71937  0.85968  0.50000
E48   E   0.71937  0.85969  0.50000
E49   E   0.74768  0.25232  0.00000
E50   E   0.74768  0.37384  0.15602
E51   E   0.74768  0.37384  0.84398
E52   E   0.74768  0.37384  0.15602
E53   E   0.74768  0.37384  0.84398
E54   E   0.74768  0.49536  0.00000
E55   E   0.78953  0.00000  0.34398
E56   E   0.78953  0.00000  0.65602
E57   E   0.78953  0.78953  0.34398
E58   E   0.78953  0.78953  0.65602
E59   E   0.80368  0.19632  0.25000
E60   E   0.80368  0.19632  0.75000
E61   E   0.80368  0.60736  0.25000
E62   E   0.80368  0.60736  0.75000
E63   E   0.85968  0.14031  0.50000
E64   E   0.85968  0.71937  0.50000
E65   E   0.85969  0.14032  0.50000
E66   E   0.85969  0.71937  0.50000
loop_
