data_alm_P42/mnm  hall_number: 419, V_con: 6, EC_con: 5
_audit_creation_date              2025-03-05
_audit_creation_method            'MOFbuilder_1.0'
_symmetry_space_group_name_H-M    'P1'
_symmetry_Int_Tables_number       1
_symmetry_cell_setting            triclinic
loop_
_symmetry_equiv_pos_as_xyz
  x,y,z
_cell_length_a                    27.8105
_cell_length_b                    27.8105
_cell_length_c                    23.0126
_cell_angle_alpha                 90.0
_cell_angle_beta                  90.0
_cell_angle_gamma                 90.0
loop_
_atom_site_label
_atom_site_type_symbol
_atom_site_fract_x
_atom_site_fract_y
_atom_site_fract_z
V1    V   0.17979  0.17979  0.00000
V2    V   0.32021  0.67979  0.50000
V3    V   0.67979  0.32021  0.50000
V4    V   0.82021  0.82021  0.00000
EC1    EC   0.12713  0.87287  0.21727
EC2    EC   0.12713  0.87287  0.78273
EC3    EC   0.37287  0.37287  0.28273
EC4    EC   0.37287  0.37287  0.71727
EC5    EC   0.62713  0.62713  0.28273
EC6    EC   0.62713  0.62713  0.71727
EC7    EC   0.87287  0.12713  0.21727
EC8    EC   0.87287  0.12713  0.78273
E1    E   0.00000  0.00000  0.21727
E2    E   0.00000  0.00000  0.78273
E3    E   0.02633  0.15346  0.10864
E4    E   0.02633  0.15346  0.89136
E5    E   0.12713  0.87287  0.00000
E6    E   0.15346  0.02633  0.10864
E7    E   0.15346  0.02633  0.89136
E8    E   0.22367  0.77633  0.35864
E9    E   0.22367  0.77633  0.64136
E10   E   0.27633  0.27633  0.14136
E11   E   0.27633  0.27633  0.85864
E12   E   0.34654  0.52633  0.39136
E13   E   0.34654  0.52633  0.60864
E14   E   0.37287  0.37287  0.50000
E15   E   0.47367  0.65346  0.39136
E16   E   0.47367  0.65346  0.60864
E17   E   0.50000  0.50000  0.28273
E18   E   0.50000  0.50000  0.71727
E19   E   0.52633  0.34654  0.39136
E20   E   0.52633  0.34654  0.60864
E21   E   0.62713  0.62713  0.50000
E22   E   0.65346  0.47367  0.39136
E23   E   0.65346  0.47367  0.60864
E24   E   0.72367  0.72367  0.14136
E25   E   0.72367  0.72367  0.85864
E26   E   0.77633  0.22367  0.35864
E27   E   0.77633  0.22367  0.64136
E28   E   0.84654  0.97367  0.10864
E29   E   0.84654  0.97367  0.89136
E30   E   0.87287  0.12713  0.00000
E31   E   0.97367  0.84654  0.10864
E32   E   0.97367  0.84654  0.89136
loop_
