data_ant_I41/amd:2  hall_number: 427, V_con: 6, EC_con: 3
_audit_creation_date              2025-03-05
_audit_creation_method            'MOFbuilder_1.0'
_symmetry_space_group_name_H-M    'P1'
_symmetry_Int_Tables_number       1
_symmetry_cell_setting            triclinic
loop_
_symmetry_equiv_pos_as_xyz
  x,y,z
_cell_length_a                    18.8616
_cell_length_b                    18.8616
_cell_length_c                    53.302699999999994
_cell_angle_alpha                 90.0
_cell_angle_beta                  90.0
_cell_angle_gamma                 90.0
loop_
_atom_site_label
_atom_site_type_symbol
_atom_site_fract_x
_atom_site_fract_y
_atom_site_fract_z
V1    V   0.00000  0.25000  0.87500
V2    V   0.00000  0.75000  0.12500
V3    V   0.50000  0.25000  0.62500
V4    V   0.50000  0.75000  0.37500
EC1    EC   0.00000  0.25000  0.06261
EC2    EC   0.00000  0.25000  0.68739
EC3    EC   0.00000  0.75000  0.31261
EC4    EC   0.00000  0.75000  0.93739
EC5    EC   0.50000  0.25000  0.43739
EC6    EC   0.50000  0.25000  0.81261
EC7    EC   0.50000  0.75000  0.18739
EC8    EC   0.50000  0.75000  0.56261
E1    E   0.00000  0.00000  0.09380
E2    E   0.00000  0.00000  0.90620
E3    E   0.00000  0.25000  0.78120
E4    E   0.00000  0.25000  0.96880
E5    E   0.00000  0.50000  0.09380
E6    E   0.00000  0.50000  0.90620
E7    E   0.00000  0.75000  0.03120
E8    E   0.00000  0.75000  0.21880
E9    E   0.25000  0.25000  0.65620
E10   E   0.25000  0.25000  0.84380
E11   E   0.25000  0.75000  0.15620
E12   E   0.25000  0.75000  0.34380
E13   E   0.50000  0.00000  0.40620
E14   E   0.50000  0.00000  0.59380
E15   E   0.50000  0.25000  0.53120
E16   E   0.50000  0.25000  0.71880
E17   E   0.50000  0.50000  0.40620
E18   E   0.50000  0.50000  0.59380
E19   E   0.50000  0.75000  0.28120
E20   E   0.50000  0.75000  0.46880
E21   E   0.75000  0.25000  0.65620
E22   E   0.75000  0.25000  0.84380
E23   E   0.75000  0.75000  0.15620
E24   E   0.75000  0.75000  0.34380
loop_
