data_apc_Cmca  hall_number: 304, V_con: 4, EC_con: 4
_audit_creation_date              2025-03-05
_audit_creation_method            'MOFbuilder_1.0'
_symmetry_space_group_name_H-M    'P1'
_symmetry_Int_Tables_number       1
_symmetry_cell_setting            triclinic
loop_
_symmetry_equiv_pos_as_xyz
  x,y,z
_cell_length_a                    30.1557
_cell_length_b                    65.6277
_cell_length_c                    30.653100000000002
_cell_angle_alpha                 90.0
_cell_angle_beta                  90.0
_cell_angle_gamma                 90.0
loop_
_atom_site_label
_atom_site_type_symbol
_atom_site_fract_x
_atom_site_fract_y
_atom_site_fract_z
V1    V   0.16581  0.05648  0.89052
V2    V   0.16581  0.44352  0.39052
V3    V   0.16581  0.55648  0.60948
V4    V   0.16581  0.94352  0.10948
V5    V   0.33419  0.05648  0.60948
V6    V   0.33419  0.44352  0.10948
V7    V   0.33419  0.55648  0.89052
V8    V   0.33419  0.94352  0.39052
V9    V   0.66581  0.05648  0.60948
V10   V   0.66581  0.44352  0.10948
V11   V   0.66581  0.55648  0.89052
V12   V   0.66581  0.94352  0.39052
V13   V   0.83419  0.05648  0.89052
V14   V   0.83419  0.44352  0.39052
V15   V   0.83419  0.55648  0.60948
V16   V   0.83419  0.94352  0.10948
EC1    EC   0.16581  0.20885  0.89052
EC2    EC   0.16581  0.29115  0.39052
EC3    EC   0.16581  0.70885  0.60948
EC4    EC   0.16581  0.79115  0.10948
EC5    EC   0.33419  0.20885  0.60948
EC6    EC   0.33419  0.29115  0.10948
EC7    EC   0.33419  0.70885  0.89052
EC8    EC   0.33419  0.79115  0.39052
EC9    EC   0.66581  0.20885  0.60948
EC10   EC   0.66581  0.29115  0.10948
EC11   EC   0.66581  0.70885  0.89052
EC12   EC   0.66581  0.79115  0.39052
EC13   EC   0.83419  0.20885  0.89052
EC14   EC   0.83419  0.29115  0.39052
EC15   EC   0.83419  0.70885  0.60948
EC16   EC   0.83419  0.79115  0.10948
E1    E   0.00000  0.05648  0.89052
E2    E   0.00000  0.20885  0.89052
E3    E   0.00000  0.29115  0.39052
E4    E   0.00000  0.44352  0.39052
E5    E   0.00000  0.55648  0.60948
E6    E   0.00000  0.70885  0.60948
E7    E   0.00000  0.79115  0.10948
E8    E   0.00000  0.94352  0.10948
E9    E   0.16581  0.00000  0.00000
E10   E   0.16581  0.13267  0.89052
E11   E   0.16581  0.36733  0.39052
E12   E   0.16581  0.50000  0.50000
E13   E   0.16581  0.63267  0.60948
E14   E   0.16581  0.86733  0.10948
E15   E   0.25000  0.05648  0.75000
E16   E   0.25000  0.20885  0.75000
E17   E   0.25000  0.25000  0.00000
E18   E   0.25000  0.25000  0.50000
E19   E   0.25000  0.29115  0.25000
E20   E   0.25000  0.44352  0.25000
E21   E   0.25000  0.55648  0.75000
E22   E   0.25000  0.70885  0.75000
E23   E   0.25000  0.75000  0.00000
E24   E   0.25000  0.75000  0.50000
E25   E   0.25000  0.79115  0.25000
E26   E   0.25000  0.94352  0.25000
E27   E   0.33419  0.00000  0.50000
E28   E   0.33419  0.13267  0.60948
E29   E   0.33419  0.36733  0.10948
E30   E   0.33419  0.50000  0.00000
E31   E   0.33419  0.63267  0.89052
E32   E   0.33419  0.86733  0.39052
E33   E   0.50000  0.05648  0.60948
E34   E   0.50000  0.20885  0.60948
E35   E   0.50000  0.29115  0.10948
E36   E   0.50000  0.44352  0.10948
E37   E   0.50000  0.55648  0.89052
E38   E   0.50000  0.70885  0.89052
E39   E   0.50000  0.79115  0.39052
E40   E   0.50000  0.94352  0.39052
E41   E   0.66581  0.00000  0.50000
E42   E   0.66581  0.13267  0.60948
E43   E   0.66581  0.36733  0.10948
E44   E   0.66581  0.50000  0.00000
E45   E   0.66581  0.63267  0.89052
E46   E   0.66581  0.86733  0.39052
E47   E   0.75000  0.05648  0.75000
E48   E   0.75000  0.20885  0.75000
E49   E   0.75000  0.25000  0.00000
E50   E   0.75000  0.25000  0.50000
E51   E   0.75000  0.29115  0.25000
E52   E   0.75000  0.44352  0.25000
E53   E   0.75000  0.55648  0.75000
E54   E   0.75000  0.70885  0.75000
E55   E   0.75000  0.75000  0.00000
E56   E   0.75000  0.75000  0.50000
E57   E   0.75000  0.79115  0.25000
E58   E   0.75000  0.94352  0.25000
E59   E   0.83419  0.00000  0.00000
E60   E   0.83419  0.13267  0.89052
E61   E   0.83419  0.36733  0.39052
E62   E   0.83419  0.50000  0.50000
E63   E   0.83419  0.63267  0.60948
E64   E   0.83419  0.86733  0.10948
loop_
