data_aww_P4/nmm:2  hall_number: 409, V_con: 4, EC_con: 4
_audit_creation_date              2025-03-05
_audit_creation_method            'MOFbuilder_1.0'
_symmetry_space_group_name_H-M    'P1'
_symmetry_Int_Tables_number       1
_symmetry_cell_setting            triclinic
loop_
_symmetry_equiv_pos_as_xyz
  x,y,z
_cell_length_a                    43.5041
_cell_length_b                    43.5041
_cell_length_c                    25.1687
_cell_angle_alpha                 90.0
_cell_angle_beta                  90.0
_cell_angle_gamma                 90.0
loop_
_atom_site_label
_atom_site_type_symbol
_atom_site_fract_x
_atom_site_fract_y
_atom_site_fract_z
V1    V   0.02747  0.63507  0.85110
V2    V   0.02747  0.86493  0.85110
V3    V   0.13507  0.52747  0.14890
V4    V   0.13507  0.97253  0.14890
V5    V   0.36493  0.52747  0.14890
V6    V   0.36493  0.97253  0.14890
V7    V   0.47253  0.63507  0.85110
V8    V   0.47253  0.86493  0.85110
V9    V   0.52747  0.13507  0.14890
V10   V   0.52747  0.36493  0.14890
V11   V   0.63507  0.02747  0.85110
V12   V   0.63507  0.47253  0.85110
V13   V   0.86493  0.02747  0.85110
V14   V   0.86493  0.47253  0.85110
V15   V   0.97253  0.13507  0.14890
V16   V   0.97253  0.36493  0.14890
EC1    EC   0.13507  0.63507  0.50000
EC2    EC   0.13507  0.86493  0.50000
EC3    EC   0.13507  0.63507  0.50000
EC4    EC   0.13507  0.86493  0.50000
EC5    EC   0.36493  0.63507  0.50000
EC6    EC   0.36493  0.86493  0.50000
EC7    EC   0.63507  0.13507  0.50000
EC8    EC   0.63507  0.13507  0.50000
EC9    EC   0.63507  0.36493  0.50000
EC10   EC   0.86493  0.13507  0.50000
EC11   EC   0.86493  0.13507  0.50000
EC12   EC   0.86493  0.36493  0.50000
E1    E   0.02747  0.75000  0.85110
E2    E   0.05380  0.05380  0.14890
E3    E   0.05380  0.44620  0.14890
E4    E   0.05380  0.05380  0.14890
E5    E   0.05380  0.44620  0.14890
E6    E   0.08127  0.58127  0.00000
E7    E   0.08127  0.63507  0.67555
E8    E   0.08127  0.86493  0.67555
E9    E   0.08127  0.91873  0.00000
E10   E   0.08127  0.58127  0.00000
E11   E   0.08127  0.91873  0.00000
E12   E   0.13507  0.58127  0.32445
E13   E   0.13507  0.91873  0.32445
E14   E   0.13507  0.75000  0.50000
E15   E   0.25000  0.52747  0.14890
E16   E   0.25000  0.63507  0.50000
E17   E   0.25000  0.86493  0.50000
E18   E   0.25000  0.97253  0.14890
E19   E   0.36493  0.58127  0.32445
E20   E   0.36493  0.75000  0.50000
E21   E   0.36493  0.91873  0.32445
E22   E   0.41873  0.58127  0.00000
E23   E   0.41873  0.91873  0.00000
E24   E   0.41873  0.58127  0.00000
E25   E   0.41873  0.63507  0.67555
E26   E   0.41873  0.86493  0.67555
E27   E   0.41873  0.91873  0.00000
E28   E   0.44620  0.05380  0.14890
E29   E   0.44620  0.05380  0.14890
E30   E   0.44620  0.44620  0.14890
E31   E   0.47253  0.75000  0.85110
E32   E   0.52747  0.25000  0.14890
E33   E   0.55380  0.55380  0.85110
E34   E   0.55380  0.94620  0.85110
E35   E   0.55380  0.55380  0.85110
E36   E   0.55380  0.94620  0.85110
E37   E   0.58127  0.08127  0.00000
E38   E   0.58127  0.08127  0.00000
E39   E   0.58127  0.13507  0.32445
E40   E   0.58127  0.36493  0.32445
E41   E   0.58127  0.41873  0.00000
E42   E   0.58127  0.41873  0.00000
E43   E   0.63507  0.08127  0.67555
E44   E   0.63507  0.25000  0.50000
E45   E   0.63507  0.41873  0.67555
E46   E   0.75000  0.02747  0.85110
E47   E   0.75000  0.13507  0.50000
E48   E   0.75000  0.36493  0.50000
E49   E   0.75000  0.47253  0.85110
E50   E   0.86493  0.08127  0.67555
E51   E   0.86493  0.25000  0.50000
E52   E   0.86493  0.41873  0.67555
E53   E   0.91873  0.08127  0.00000
E54   E   0.91873  0.08127  0.00000
E55   E   0.91873  0.13507  0.32445
E56   E   0.91873  0.36493  0.32445
E57   E   0.91873  0.41873  0.00000
E58   E   0.91873  0.41873  0.00000
E59   E   0.94620  0.55380  0.85110
E60   E   0.94620  0.94620  0.85110
E61   E   0.94620  0.55380  0.85110
E62   E   0.94620  0.94620  0.85110
E63   E   0.97253  0.25000  0.14890
loop_
