data_bac_P63/mcm  hall_number: 487, V_con: 4, EC_con: 4
_audit_creation_date              2025-03-05
_audit_creation_method            'MOFbuilder_1.0'
_symmetry_space_group_name_H-M    'P1'
_symmetry_Int_Tables_number       1
_symmetry_cell_setting            triclinic
loop_
_symmetry_equiv_pos_as_xyz
  x,y,z
_cell_length_a                    28.837899999999998
_cell_length_b                    28.837899999999998
_cell_length_c                    42.4474
_cell_angle_alpha                 90.0
_cell_angle_beta                  90.0
_cell_angle_gamma                 120.0
loop_
_atom_site_label
_atom_site_type_symbol
_atom_site_fract_x
_atom_site_fract_y
_atom_site_fract_z
V1    V   0.00000  0.20020  0.25000
V2    V   0.00000  0.79980  0.75000
V3    V   0.20020  0.00000  0.25000
V4    V   0.20020  0.20020  0.75000
V5    V   0.79980  0.00000  0.75000
V6    V   0.79980  0.79980  0.25000
EC1    EC   0.00000  0.33333  0.03247
EC2    EC   0.00000  0.33333  0.46753
EC3    EC   0.00000  0.66667  0.53247
EC4    EC   0.00000  0.66667  0.96753
EC5    EC   0.33333  0.00000  0.03247
EC6    EC   0.33333  0.00000  0.46753
EC7    EC   0.33333  0.33333  0.53247
EC8    EC   0.33333  0.33333  0.96753
EC9    EC   0.66667  0.00000  0.53247
EC10   EC   0.66667  0.00000  0.96753
EC11   EC   0.66667  0.66667  0.03247
EC12   EC   0.66667  0.66667  0.46753
E1    E   0.00000  0.10010  0.75000
E2    E   0.00000  0.26677  0.14123
E3    E   0.00000  0.26677  0.35877
E4    E   0.00000  0.50000  0.00000
E5    E   0.00000  0.50000  0.50000
E6    E   0.00000  0.73323  0.64123
E7    E   0.00000  0.73323  0.85877
E8    E   0.00000  0.89990  0.25000
E9    E   0.10010  0.00000  0.75000
E10   E   0.10010  0.10010  0.25000
E11   E   0.16666  0.33333  0.00000
E12   E   0.16666  0.33333  0.50000
E13   E   0.16666  0.83333  0.00000
E14   E   0.16666  0.83333  0.50000
E15   E   0.16667  0.33333  0.00000
E16   E   0.16667  0.33333  0.50000
E17   E   0.16667  0.83334  0.00000
E18   E   0.16667  0.83334  0.50000
E19   E   0.26677  0.00000  0.14123
E20   E   0.26677  0.00000  0.35877
E21   E   0.26677  0.26677  0.64123
E22   E   0.26677  0.26677  0.85877
E23   E   0.33333  0.16666  0.00000
E24   E   0.33333  0.16666  0.50000
E25   E   0.33333  0.16667  0.00000
E26   E   0.33333  0.16667  0.50000
E27   E   0.50000  0.00000  0.00000
E28   E   0.50000  0.00000  0.50000
E29   E   0.50000  0.50000  0.00000
E30   E   0.50000  0.50000  0.50000
E31   E   0.66667  0.83333  0.00000
E32   E   0.66667  0.83333  0.50000
E33   E   0.66667  0.83334  0.00000
E34   E   0.66667  0.83334  0.50000
E35   E   0.73323  0.00000  0.64123
E36   E   0.73323  0.00000  0.85877
E37   E   0.73323  0.73323  0.14123
E38   E   0.73323  0.73323  0.35877
E39   E   0.83333  0.16666  0.00000
E40   E   0.83333  0.16666  0.50000
E41   E   0.83333  0.66667  0.00000
E42   E   0.83333  0.66667  0.50000
E43   E   0.83334  0.16667  0.00000
E44   E   0.83334  0.16667  0.50000
E45   E   0.83334  0.66667  0.00000
E46   E   0.83334  0.66667  0.50000
E47   E   0.89990  0.00000  0.25000
E48   E   0.89990  0.89990  0.75000
loop_
