data_baf_Cmcm  hall_number: 298, V_con: 4, EC_con: 4
_audit_creation_date              2025-03-05
_audit_creation_method            'MOFbuilder_1.0'
_symmetry_space_group_name_H-M    'P1'
_symmetry_Int_Tables_number       1
_symmetry_cell_setting            triclinic
loop_
_symmetry_equiv_pos_as_xyz
  x,y,z
_cell_length_a                    31.378300000000003
_cell_length_b                    58.4619
_cell_length_c                    15.419599999999999
_cell_angle_alpha                 90.0
_cell_angle_beta                  90.0
_cell_angle_gamma                 90.0
loop_
_atom_site_label
_atom_site_type_symbol
_atom_site_fract_x
_atom_site_fract_y
_atom_site_fract_z
V1    V   0.15935  0.44553  0.75000
V2    V   0.15935  0.55447  0.25000
V3    V   0.34065  0.05447  0.25000
V4    V   0.34065  0.94553  0.75000
V5    V   0.65935  0.05447  0.25000
V6    V   0.65935  0.94553  0.75000
V7    V   0.84065  0.44553  0.75000
V8    V   0.84065  0.55447  0.25000
EC1    EC   0.15935  0.27448  0.75000
EC2    EC   0.15935  0.72552  0.25000
EC3    EC   0.34065  0.22552  0.25000
EC4    EC   0.34065  0.77448  0.75000
EC5    EC   0.65935  0.22552  0.25000
EC6    EC   0.65935  0.77448  0.75000
EC7    EC   0.84065  0.27448  0.75000
EC8    EC   0.84065  0.72552  0.25000
E1    E   0.00000  0.27448  0.75000
E2    E   0.00000  0.44553  0.75000
E3    E   0.00000  0.55447  0.25000
E4    E   0.00000  0.72552  0.25000
E5    E   0.15935  0.36001  0.75000
E6    E   0.15935  0.50000  0.00000
E7    E   0.15935  0.50000  0.50000
E8    E   0.15935  0.63999  0.25000
E9    E   0.25000  0.25000  0.00000
E10   E   0.25000  0.25000  0.50000
E11   E   0.25000  0.75000  0.00000
E12   E   0.25000  0.75000  0.50000
E13   E   0.34065  0.00000  0.00000
E14   E   0.34065  0.00000  0.50000
E15   E   0.34065  0.13999  0.25000
E16   E   0.34065  0.86001  0.75000
E17   E   0.50000  0.05447  0.25000
E18   E   0.50000  0.22552  0.25000
E19   E   0.50000  0.77448  0.75000
E20   E   0.50000  0.94553  0.75000
E21   E   0.65935  0.00000  0.00000
E22   E   0.65935  0.00000  0.50000
E23   E   0.65935  0.13999  0.25000
E24   E   0.65935  0.86001  0.75000
E25   E   0.75000  0.25000  0.00000
E26   E   0.75000  0.25000  0.50000
E27   E   0.75000  0.75000  0.00000
E28   E   0.75000  0.75000  0.50000
E29   E   0.84065  0.36001  0.75000
E30   E   0.84065  0.50000  0.00000
E31   E   0.84065  0.50000  0.50000
E32   E   0.84065  0.63999  0.25000
loop_
