data_bag_Im-3m  hall_number: 529, V_con: 4, EC_con: 4
_audit_creation_date              2025-03-05
_audit_creation_method            'MOFbuilder_1.0'
_symmetry_space_group_name_H-M    'P1'
_symmetry_Int_Tables_number       1
_symmetry_cell_setting            triclinic
loop_
_symmetry_equiv_pos_as_xyz
  x,y,z
_cell_length_a                    10.29254
_cell_length_b                    10.29254
_cell_length_c                    10.29254
_cell_angle_alpha                 90.0
_cell_angle_beta                  90.0
_cell_angle_gamma                 90.0
loop_
_atom_site_label
_atom_site_type_symbol
_atom_site_fract_x
_atom_site_fract_y
_atom_site_fract_z
V1    V   0.00000  0.38272  0.45142
V2    V   0.00000  0.38272  0.54858
V3    V   0.00000  0.45142  0.38272
V4    V   0.00000  0.45142  0.61728
V5    V   0.00000  0.54858  0.38272
V6    V   0.00000  0.54858  0.61728
V7    V   0.00000  0.61728  0.45142
V8    V   0.00000  0.61728  0.54858
V9    V   0.04858  0.11728  0.50000
V10   V   0.04858  0.50000  0.11728
V11   V   0.04858  0.50000  0.88272
V12   V   0.04858  0.88272  0.50000
V13   V   0.11728  0.04858  0.50000
V14   V   0.11728  0.50000  0.04858
V15   V   0.11728  0.50000  0.95142
V16   V   0.11728  0.95142  0.50000
V17   V   0.38272  0.00000  0.45142
V18   V   0.38272  0.00000  0.54858
V19   V   0.38272  0.45142  0.00000
V20   V   0.38272  0.54858  0.00000
V21   V   0.45142  0.00000  0.38272
V22   V   0.45142  0.00000  0.61728
V23   V   0.45142  0.38272  0.00000
V24   V   0.45142  0.61728  0.00000
V25   V   0.50000  0.04858  0.11728
V26   V   0.50000  0.04858  0.88272
V27   V   0.50000  0.11728  0.04858
V28   V   0.50000  0.11728  0.95142
V29   V   0.50000  0.88272  0.04858
V30   V   0.50000  0.88272  0.95142
V31   V   0.50000  0.95142  0.11728
V32   V   0.50000  0.95142  0.88272
V33   V   0.54858  0.00000  0.38272
V34   V   0.54858  0.00000  0.61728
V35   V   0.54858  0.38272  0.00000
V36   V   0.54858  0.61728  0.00000
V37   V   0.61728  0.00000  0.45142
V38   V   0.61728  0.00000  0.54858
V39   V   0.61728  0.45142  0.00000
V40   V   0.61728  0.54858  0.00000
V41   V   0.88272  0.04858  0.50000
V42   V   0.88272  0.50000  0.04858
V43   V   0.88272  0.50000  0.95142
V44   V   0.88272  0.95142  0.50000
V45   V   0.95142  0.11728  0.50000
V46   V   0.95142  0.50000  0.11728
V47   V   0.95142  0.50000  0.88272
V48   V   0.95142  0.88272  0.50000
EC1    EC   0.04858  0.20142  0.45142
EC2    EC   0.04858  0.20142  0.54858
EC3    EC   0.04858  0.45142  0.20142
EC4    EC   0.04858  0.45142  0.79858
EC5    EC   0.04858  0.54858  0.20142
EC6    EC   0.04858  0.54858  0.79858
EC7    EC   0.04858  0.79858  0.45142
EC8    EC   0.04858  0.79858  0.54858
EC9    EC   0.04858  0.29858  0.45142
EC10   EC   0.04858  0.29858  0.54858
EC11   EC   0.04858  0.45142  0.29858
EC12   EC   0.04858  0.45142  0.70142
EC13   EC   0.04858  0.54858  0.29858
EC14   EC   0.04858  0.54858  0.70142
EC15   EC   0.04858  0.70142  0.45142
EC16   EC   0.04858  0.70142  0.54858
EC17   EC   0.20142  0.04858  0.45142
EC18   EC   0.20142  0.04858  0.54858
EC19   EC   0.20142  0.45142  0.04858
EC20   EC   0.20142  0.45142  0.95142
EC21   EC   0.20142  0.54858  0.04858
EC22   EC   0.20142  0.54858  0.95142
EC23   EC   0.20142  0.95142  0.45142
EC24   EC   0.20142  0.95142  0.54858
EC25   EC   0.29858  0.04858  0.45142
EC26   EC   0.29858  0.04858  0.54858
EC27   EC   0.29858  0.45142  0.04858
EC28   EC   0.29858  0.45142  0.95142
EC29   EC   0.29858  0.54858  0.04858
EC30   EC   0.29858  0.54858  0.95142
EC31   EC   0.29858  0.95142  0.45142
EC32   EC   0.29858  0.95142  0.54858
EC33   EC   0.45142  0.04858  0.20142
EC34   EC   0.45142  0.04858  0.79858
EC35   EC   0.45142  0.04858  0.29858
EC36   EC   0.45142  0.04858  0.70142
EC37   EC   0.45142  0.20142  0.04858
EC38   EC   0.45142  0.20142  0.95142
EC39   EC   0.45142  0.29858  0.04858
EC40   EC   0.45142  0.29858  0.95142
EC41   EC   0.45142  0.70142  0.04858
EC42   EC   0.45142  0.70142  0.95142
EC43   EC   0.45142  0.79858  0.04858
EC44   EC   0.45142  0.79858  0.95142
EC45   EC   0.45142  0.95142  0.29858
EC46   EC   0.45142  0.95142  0.70142
EC47   EC   0.45142  0.95142  0.20142
EC48   EC   0.45142  0.95142  0.79858
EC49   EC   0.54858  0.04858  0.29858
EC50   EC   0.54858  0.04858  0.70142
EC51   EC   0.54858  0.29858  0.04858
EC52   EC   0.54858  0.29858  0.95142
EC53   EC   0.54858  0.70142  0.04858
EC54   EC   0.54858  0.70142  0.95142
EC55   EC   0.54858  0.95142  0.29858
EC56   EC   0.54858  0.95142  0.70142
EC57   EC   0.54858  0.04858  0.20142
EC58   EC   0.54858  0.04858  0.79858
EC59   EC   0.54858  0.20142  0.04858
EC60   EC   0.54858  0.20142  0.95142
EC61   EC   0.54858  0.79858  0.04858
EC62   EC   0.54858  0.79858  0.95142
EC63   EC   0.54858  0.95142  0.20142
EC64   EC   0.54858  0.95142  0.79858
EC65   EC   0.70142  0.04858  0.45142
EC66   EC   0.70142  0.04858  0.54858
EC67   EC   0.70142  0.45142  0.04858
EC68   EC   0.70142  0.45142  0.95142
EC69   EC   0.70142  0.54858  0.04858
EC70   EC   0.70142  0.54858  0.95142
EC71   EC   0.70142  0.95142  0.45142
EC72   EC   0.70142  0.95142  0.54858
EC73   EC   0.79858  0.04858  0.45142
EC74   EC   0.79858  0.04858  0.54858
EC75   EC   0.79858  0.45142  0.04858
EC76   EC   0.79858  0.45142  0.95142
EC77   EC   0.79858  0.54858  0.04858
EC78   EC   0.79858  0.54858  0.95142
EC79   EC   0.79858  0.95142  0.45142
EC80   EC   0.79858  0.95142  0.54858
EC81   EC   0.95142  0.29858  0.45142
EC82   EC   0.95142  0.29858  0.54858
EC83   EC   0.95142  0.45142  0.29858
EC84   EC   0.95142  0.45142  0.70142
EC85   EC   0.95142  0.54858  0.29858
EC86   EC   0.95142  0.54858  0.70142
EC87   EC   0.95142  0.70142  0.45142
EC88   EC   0.95142  0.70142  0.54858
EC89   EC   0.95142  0.20142  0.45142
EC90   EC   0.95142  0.20142  0.54858
EC91   EC   0.95142  0.45142  0.20142
EC92   EC   0.95142  0.45142  0.79858
EC93   EC   0.95142  0.54858  0.20142
EC94   EC   0.95142  0.54858  0.79858
EC95   EC   0.95142  0.79858  0.45142
EC96   EC   0.95142  0.79858  0.54858
E1    E   0.00000  0.11728  0.50000
E2    E   0.00000  0.20142  0.45142
E3    E   0.00000  0.20142  0.54858
E4    E   0.00000  0.29858  0.45142
E5    E   0.00000  0.29858  0.54858
E6    E   0.00000  0.38272  0.50000
E7    E   0.00000  0.41707  0.41707
E8    E   0.00000  0.41707  0.58293
E9    E   0.00000  0.45142  0.20142
E10   E   0.00000  0.45142  0.29858
E11   E   0.00000  0.45142  0.70142
E12   E   0.00000  0.45142  0.79858
E13   E   0.00000  0.50000  0.11728
E14   E   0.00000  0.50000  0.38272
E15   E   0.00000  0.50000  0.61728
E16   E   0.00000  0.50000  0.88272
E17   E   0.00000  0.54858  0.29858
E18   E   0.00000  0.54858  0.70142
E19   E   0.00000  0.54858  0.20142
E20   E   0.00000  0.54858  0.79858
E21   E   0.00000  0.58293  0.41707
E22   E   0.00000  0.58293  0.58293
E23   E   0.00000  0.61728  0.50000
E24   E   0.00000  0.70142  0.45142
E25   E   0.00000  0.70142  0.54858
E26   E   0.00000  0.79858  0.45142
E27   E   0.00000  0.79858  0.54858
E28   E   0.00000  0.88272  0.50000
E29   E   0.02429  0.34065  0.45142
E30   E   0.02429  0.34065  0.54858
E31   E   0.02429  0.45142  0.34065
E32   E   0.02429  0.45142  0.65935
E33   E   0.02429  0.54858  0.34065
E34   E   0.02429  0.54858  0.65935
E35   E   0.02429  0.65935  0.45142
E36   E   0.02429  0.65935  0.54858
E37   E   0.04858  0.20142  0.50000
E38   E   0.04858  0.25000  0.45142
E39   E   0.04858  0.25000  0.54858
E40   E   0.04858  0.45142  0.25000
E41   E   0.04858  0.45142  0.75000
E42   E   0.04858  0.50000  0.20142
E43   E   0.04858  0.50000  0.79858
E44   E   0.04858  0.54858  0.25000
E45   E   0.04858  0.54858  0.75000
E46   E   0.04858  0.75000  0.45142
E47   E   0.04858  0.75000  0.54858
E48   E   0.04858  0.79858  0.50000
E49   E   0.04858  0.15935  0.47571
E50   E   0.04858  0.15935  0.52429
E51   E   0.04858  0.25000  0.45142
E52   E   0.04858  0.25000  0.54858
E53   E   0.04858  0.29858  0.50000
E54   E   0.04858  0.45142  0.25000
E55   E   0.04858  0.45142  0.75000
E56   E   0.04858  0.47571  0.15935
E57   E   0.04858  0.47571  0.84065
E58   E   0.04858  0.50000  0.29858
E59   E   0.04858  0.50000  0.70142
E60   E   0.04858  0.52429  0.15935
E61   E   0.04858  0.52429  0.84065
E62   E   0.04858  0.54858  0.25000
E63   E   0.04858  0.54858  0.75000
E64   E   0.04858  0.70142  0.50000
E65   E   0.04858  0.75000  0.45142
E66   E   0.04858  0.75000  0.54858
E67   E   0.04858  0.84065  0.47571
E68   E   0.04858  0.84065  0.52429
E69   E   0.08293  0.08293  0.50000
E70   E   0.08293  0.50000  0.08293
E71   E   0.08293  0.50000  0.91707
E72   E   0.08293  0.91707  0.50000
E73   E   0.11728  0.00000  0.50000
E74   E   0.11728  0.50000  0.00000
E75   E   0.15935  0.04858  0.47571
E76   E   0.15935  0.04858  0.52429
E77   E   0.15935  0.47571  0.04858
E78   E   0.15935  0.47571  0.95142
E79   E   0.15935  0.52429  0.04858
E80   E   0.15935  0.52429  0.95142
E81   E   0.15935  0.95142  0.47571
E82   E   0.15935  0.95142  0.52429
E83   E   0.20142  0.00000  0.45142
E84   E   0.20142  0.00000  0.54858
E85   E   0.20142  0.04858  0.50000
E86   E   0.20142  0.45142  0.00000
E87   E   0.20142  0.50000  0.04858
E88   E   0.20142  0.50000  0.95142
E89   E   0.20142  0.54858  0.00000
E90   E   0.20142  0.95142  0.50000
E91   E   0.25000  0.04858  0.45142
E92   E   0.25000  0.04858  0.54858
E93   E   0.25000  0.04858  0.45142
E94   E   0.25000  0.04858  0.54858
E95   E   0.25000  0.45142  0.04858
E96   E   0.25000  0.45142  0.04858
E97   E   0.25000  0.45142  0.95142
E98   E   0.25000  0.45142  0.95142
E99   E   0.25000  0.54858  0.04858
E100  E   0.25000  0.54858  0.95142
E101  E   0.25000  0.54858  0.04858
E102  E   0.25000  0.54858  0.95142
E103  E   0.25000  0.95142  0.45142
E104  E   0.25000  0.95142  0.54858
E105  E   0.25000  0.95142  0.45142
E106  E   0.25000  0.95142  0.54858
E107  E   0.29858  0.00000  0.45142
E108  E   0.29858  0.00000  0.54858
E109  E   0.29858  0.04858  0.50000
E110  E   0.29858  0.45142  0.00000
E111  E   0.29858  0.50000  0.04858
E112  E   0.29858  0.50000  0.95142
E113  E   0.29858  0.54858  0.00000
E114  E   0.29858  0.95142  0.50000
E115  E   0.34065  0.02429  0.45142
E116  E   0.34065  0.02429  0.54858
E117  E   0.34065  0.45142  0.02429
E118  E   0.34065  0.45142  0.97571
E119  E   0.34065  0.54858  0.02429
E120  E   0.34065  0.54858  0.97571
E121  E   0.34065  0.97571  0.45142
E122  E   0.34065  0.97571  0.54858
E123  E   0.38272  0.00000  0.50000
E124  E   0.38272  0.50000  0.00000
E125  E   0.41707  0.00000  0.41707
E126  E   0.41707  0.00000  0.58293
E127  E   0.41707  0.41707  0.00000
E128  E   0.41707  0.58293  0.00000
E129  E   0.45142  0.00000  0.20142
E130  E   0.45142  0.00000  0.29858
E131  E   0.45142  0.00000  0.70142
E132  E   0.45142  0.00000  0.79858
E133  E   0.45142  0.02429  0.34065
E134  E   0.45142  0.02429  0.65935
E135  E   0.45142  0.04858  0.25000
E136  E   0.45142  0.04858  0.75000
E137  E   0.45142  0.04858  0.25000
E138  E   0.45142  0.04858  0.75000
E139  E   0.45142  0.20142  0.00000
E140  E   0.45142  0.25000  0.04858
E141  E   0.45142  0.25000  0.04858
E142  E   0.45142  0.25000  0.95142
E143  E   0.45142  0.25000  0.95142
E144  E   0.45142  0.29858  0.00000
E145  E   0.45142  0.34065  0.02429
E146  E   0.45142  0.34065  0.97571
E147  E   0.45142  0.65935  0.02429
E148  E   0.45142  0.65935  0.97571
E149  E   0.45142  0.70142  0.00000
E150  E   0.45142  0.75000  0.04858
E151  E   0.45142  0.75000  0.04858
E152  E   0.45142  0.75000  0.95142
E153  E   0.45142  0.75000  0.95142
E154  E   0.45142  0.79858  0.00000
E155  E   0.45142  0.95142  0.25000
E156  E   0.45142  0.95142  0.75000
E157  E   0.45142  0.95142  0.25000
E158  E   0.45142  0.95142  0.75000
E159  E   0.45142  0.97571  0.34065
E160  E   0.45142  0.97571  0.65935
E161  E   0.47571  0.04858  0.15935
E162  E   0.47571  0.04858  0.84065
E163  E   0.47571  0.15935  0.04858
E164  E   0.47571  0.15935  0.95142
E165  E   0.47571  0.84065  0.04858
E166  E   0.47571  0.84065  0.95142
E167  E   0.47571  0.95142  0.15935
E168  E   0.47571  0.95142  0.84065
E169  E   0.50000  0.00000  0.11728
E170  E   0.50000  0.00000  0.38272
E171  E   0.50000  0.00000  0.61728
E172  E   0.50000  0.00000  0.88272
E173  E   0.50000  0.04858  0.20142
E174  E   0.50000  0.04858  0.79858
E175  E   0.50000  0.04858  0.29858
E176  E   0.50000  0.04858  0.70142
E177  E   0.50000  0.08293  0.08293
E178  E   0.50000  0.08293  0.91707
E179  E   0.50000  0.11728  0.00000
E180  E   0.50000  0.20142  0.04858
E181  E   0.50000  0.20142  0.95142
E182  E   0.50000  0.29858  0.04858
E183  E   0.50000  0.29858  0.95142
E184  E   0.50000  0.38272  0.00000
E185  E   0.50000  0.61728  0.00000
E186  E   0.50000  0.70142  0.04858
E187  E   0.50000  0.70142  0.95142
E188  E   0.50000  0.79858  0.04858
E189  E   0.50000  0.79858  0.95142
E190  E   0.50000  0.88272  0.00000
E191  E   0.50000  0.91707  0.08293
E192  E   0.50000  0.91707  0.91707
E193  E   0.50000  0.95142  0.29858
E194  E   0.50000  0.95142  0.70142
E195  E   0.50000  0.95142  0.20142
E196  E   0.50000  0.95142  0.79858
E197  E   0.52429  0.04858  0.15935
E198  E   0.52429  0.04858  0.84065
E199  E   0.52429  0.15935  0.04858
E200  E   0.52429  0.15935  0.95142
E201  E   0.52429  0.84065  0.04858
E202  E   0.52429  0.84065  0.95142
E203  E   0.52429  0.95142  0.15935
E204  E   0.52429  0.95142  0.84065
E205  E   0.54858  0.00000  0.29858
E206  E   0.54858  0.00000  0.70142
E207  E   0.54858  0.04858  0.25000
E208  E   0.54858  0.04858  0.75000
E209  E   0.54858  0.25000  0.04858
E210  E   0.54858  0.25000  0.95142
E211  E   0.54858  0.29858  0.00000
E212  E   0.54858  0.70142  0.00000
E213  E   0.54858  0.75000  0.04858
E214  E   0.54858  0.75000  0.95142
E215  E   0.54858  0.95142  0.25000
E216  E   0.54858  0.95142  0.75000
E217  E   0.54858  0.00000  0.20142
E218  E   0.54858  0.00000  0.79858
E219  E   0.54858  0.02429  0.34065
E220  E   0.54858  0.02429  0.65935
E221  E   0.54858  0.04858  0.25000
E222  E   0.54858  0.04858  0.75000
E223  E   0.54858  0.20142  0.00000
E224  E   0.54858  0.25000  0.04858
E225  E   0.54858  0.25000  0.95142
E226  E   0.54858  0.34065  0.02429
E227  E   0.54858  0.34065  0.97571
E228  E   0.54858  0.65935  0.02429
E229  E   0.54858  0.65935  0.97571
E230  E   0.54858  0.75000  0.04858
E231  E   0.54858  0.75000  0.95142
E232  E   0.54858  0.79858  0.00000
E233  E   0.54858  0.95142  0.25000
E234  E   0.54858  0.95142  0.75000
E235  E   0.54858  0.97571  0.34065
E236  E   0.54858  0.97571  0.65935
E237  E   0.58293  0.00000  0.41707
E238  E   0.58293  0.00000  0.58293
E239  E   0.58293  0.41707  0.00000
E240  E   0.58293  0.58293  0.00000
E241  E   0.61728  0.00000  0.50000
E242  E   0.61728  0.50000  0.00000
E243  E   0.65935  0.02429  0.45142
E244  E   0.65935  0.02429  0.54858
E245  E   0.65935  0.45142  0.02429
E246  E   0.65935  0.45142  0.97571
E247  E   0.65935  0.54858  0.02429
E248  E   0.65935  0.54858  0.97571
E249  E   0.65935  0.97571  0.45142
E250  E   0.65935  0.97571  0.54858
E251  E   0.70142  0.00000  0.45142
E252  E   0.70142  0.00000  0.54858
E253  E   0.70142  0.04858  0.50000
E254  E   0.70142  0.45142  0.00000
E255  E   0.70142  0.50000  0.04858
E256  E   0.70142  0.50000  0.95142
E257  E   0.70142  0.54858  0.00000
E258  E   0.70142  0.95142  0.50000
E259  E   0.75000  0.04858  0.45142
E260  E   0.75000  0.04858  0.54858
E261  E   0.75000  0.04858  0.45142
E262  E   0.75000  0.04858  0.54858
E263  E   0.75000  0.45142  0.04858
E264  E   0.75000  0.45142  0.04858
E265  E   0.75000  0.45142  0.95142
E266  E   0.75000  0.45142  0.95142
E267  E   0.75000  0.54858  0.04858
E268  E   0.75000  0.54858  0.95142
E269  E   0.75000  0.54858  0.04858
E270  E   0.75000  0.54858  0.95142
E271  E   0.75000  0.95142  0.45142
E272  E   0.75000  0.95142  0.54858
E273  E   0.75000  0.95142  0.45142
E274  E   0.75000  0.95142  0.54858
E275  E   0.79858  0.00000  0.45142
E276  E   0.79858  0.00000  0.54858
E277  E   0.79858  0.04858  0.50000
E278  E   0.79858  0.45142  0.00000
E279  E   0.79858  0.50000  0.04858
E280  E   0.79858  0.50000  0.95142
E281  E   0.79858  0.54858  0.00000
E282  E   0.79858  0.95142  0.50000
E283  E   0.84065  0.04858  0.47571
E284  E   0.84065  0.04858  0.52429
E285  E   0.84065  0.47571  0.04858
E286  E   0.84065  0.47571  0.95142
E287  E   0.84065  0.52429  0.04858
E288  E   0.84065  0.52429  0.95142
E289  E   0.84065  0.95142  0.47571
E290  E   0.84065  0.95142  0.52429
E291  E   0.88272  0.00000  0.50000
E292  E   0.88272  0.50000  0.00000
E293  E   0.91707  0.08293  0.50000
E294  E   0.91707  0.50000  0.08293
E295  E   0.91707  0.50000  0.91707
E296  E   0.91707  0.91707  0.50000
E297  E   0.95142  0.15935  0.47571
E298  E   0.95142  0.15935  0.52429
E299  E   0.95142  0.25000  0.45142
E300  E   0.95142  0.25000  0.54858
E301  E   0.95142  0.29858  0.50000
E302  E   0.95142  0.45142  0.25000
E303  E   0.95142  0.45142  0.75000
E304  E   0.95142  0.47571  0.15935
E305  E   0.95142  0.47571  0.84065
E306  E   0.95142  0.50000  0.29858
E307  E   0.95142  0.50000  0.70142
E308  E   0.95142  0.52429  0.15935
E309  E   0.95142  0.52429  0.84065
E310  E   0.95142  0.54858  0.25000
E311  E   0.95142  0.54858  0.75000
E312  E   0.95142  0.70142  0.50000
E313  E   0.95142  0.75000  0.45142
E314  E   0.95142  0.75000  0.54858
E315  E   0.95142  0.84065  0.47571
E316  E   0.95142  0.84065  0.52429
E317  E   0.95142  0.20142  0.50000
E318  E   0.95142  0.25000  0.45142
E319  E   0.95142  0.25000  0.54858
E320  E   0.95142  0.45142  0.25000
E321  E   0.95142  0.45142  0.75000
E322  E   0.95142  0.50000  0.20142
E323  E   0.95142  0.50000  0.79858
E324  E   0.95142  0.54858  0.25000
E325  E   0.95142  0.54858  0.75000
E326  E   0.95142  0.75000  0.45142
E327  E   0.95142  0.75000  0.54858
E328  E   0.95142  0.79858  0.50000
E329  E   0.97571  0.34065  0.45142
E330  E   0.97571  0.34065  0.54858
E331  E   0.97571  0.45142  0.34065
E332  E   0.97571  0.45142  0.65935
E333  E   0.97571  0.54858  0.34065
E334  E   0.97571  0.54858  0.65935
E335  E   0.97571  0.65935  0.45142
E336  E   0.97571  0.65935  0.54858
loop_
