data_bah_Im-3m  hall_number: 529, V_con: 4, EC_con: 4
_audit_creation_date              2025-03-05
_audit_creation_method            'MOFbuilder_1.0'
_symmetry_space_group_name_H-M    'P1'
_symmetry_Int_Tables_number       1
_symmetry_cell_setting            triclinic
loop_
_symmetry_equiv_pos_as_xyz
  x,y,z
_cell_length_a                    10.82843
_cell_length_b                    10.82843
_cell_length_c                    10.82843
_cell_angle_alpha                 90.0
_cell_angle_beta                  90.0
_cell_angle_gamma                 90.0
loop_
_atom_site_label
_atom_site_type_symbol
_atom_site_fract_x
_atom_site_fract_y
_atom_site_fract_z
V1    V   0.04617  0.38852  0.45383
V2    V   0.04617  0.38852  0.54617
V3    V   0.04617  0.45383  0.38852
V4    V   0.04617  0.45383  0.61148
V5    V   0.04617  0.54617  0.38852
V6    V   0.04617  0.54617  0.61148
V7    V   0.04617  0.61148  0.45383
V8    V   0.04617  0.61148  0.54617
V9    V   0.04617  0.11148  0.45383
V10   V   0.04617  0.11148  0.54617
V11   V   0.04617  0.45383  0.11148
V12   V   0.04617  0.45383  0.88852
V13   V   0.04617  0.54617  0.11148
V14   V   0.04617  0.54617  0.88852
V15   V   0.04617  0.88852  0.45383
V16   V   0.04617  0.88852  0.54617
V17   V   0.11148  0.04617  0.45383
V18   V   0.11148  0.04617  0.54617
V19   V   0.11148  0.45383  0.04617
V20   V   0.11148  0.45383  0.95383
V21   V   0.11148  0.54617  0.04617
V22   V   0.11148  0.54617  0.95383
V23   V   0.11148  0.95383  0.45383
V24   V   0.11148  0.95383  0.54617
V25   V   0.38852  0.04617  0.45383
V26   V   0.38852  0.04617  0.54617
V27   V   0.38852  0.45383  0.04617
V28   V   0.38852  0.45383  0.95383
V29   V   0.38852  0.54617  0.04617
V30   V   0.38852  0.54617  0.95383
V31   V   0.38852  0.95383  0.45383
V32   V   0.38852  0.95383  0.54617
V33   V   0.45383  0.04617  0.38852
V34   V   0.45383  0.04617  0.61148
V35   V   0.45383  0.04617  0.11148
V36   V   0.45383  0.04617  0.88852
V37   V   0.45383  0.11148  0.04617
V38   V   0.45383  0.11148  0.95383
V39   V   0.45383  0.38852  0.04617
V40   V   0.45383  0.38852  0.95383
V41   V   0.45383  0.61148  0.04617
V42   V   0.45383  0.61148  0.95383
V43   V   0.45383  0.88852  0.04617
V44   V   0.45383  0.88852  0.95383
V45   V   0.45383  0.95383  0.11148
V46   V   0.45383  0.95383  0.38852
V47   V   0.45383  0.95383  0.61148
V48   V   0.45383  0.95383  0.88852
V49   V   0.54617  0.04617  0.38852
V50   V   0.54617  0.04617  0.61148
V51   V   0.54617  0.04617  0.11148
V52   V   0.54617  0.04617  0.88852
V53   V   0.54617  0.11148  0.04617
V54   V   0.54617  0.11148  0.95383
V55   V   0.54617  0.38852  0.04617
V56   V   0.54617  0.38852  0.95383
V57   V   0.54617  0.61148  0.04617
V58   V   0.54617  0.61148  0.95383
V59   V   0.54617  0.88852  0.04617
V60   V   0.54617  0.88852  0.95383
V61   V   0.54617  0.95383  0.11148
V62   V   0.54617  0.95383  0.38852
V63   V   0.54617  0.95383  0.61148
V64   V   0.54617  0.95383  0.88852
V65   V   0.61148  0.04617  0.45383
V66   V   0.61148  0.04617  0.54617
V67   V   0.61148  0.45383  0.04617
V68   V   0.61148  0.45383  0.95383
V69   V   0.61148  0.54617  0.04617
V70   V   0.61148  0.54617  0.95383
V71   V   0.61148  0.95383  0.45383
V72   V   0.61148  0.95383  0.54617
V73   V   0.88852  0.04617  0.45383
V74   V   0.88852  0.04617  0.54617
V75   V   0.88852  0.45383  0.04617
V76   V   0.88852  0.45383  0.95383
V77   V   0.88852  0.54617  0.04617
V78   V   0.88852  0.54617  0.95383
V79   V   0.88852  0.95383  0.45383
V80   V   0.88852  0.95383  0.54617
V81   V   0.95383  0.11148  0.45383
V82   V   0.95383  0.11148  0.54617
V83   V   0.95383  0.38852  0.45383
V84   V   0.95383  0.38852  0.54617
V85   V   0.95383  0.45383  0.11148
V86   V   0.95383  0.45383  0.38852
V87   V   0.95383  0.45383  0.61148
V88   V   0.95383  0.45383  0.88852
V89   V   0.95383  0.54617  0.11148
V90   V   0.95383  0.54617  0.38852
V91   V   0.95383  0.54617  0.61148
V92   V   0.95383  0.54617  0.88852
V93   V   0.95383  0.61148  0.45383
V94   V   0.95383  0.61148  0.54617
V95   V   0.95383  0.88852  0.45383
V96   V   0.95383  0.88852  0.54617
EC1    EC   0.04617  0.29617  0.45383
EC2    EC   0.04617  0.29617  0.54617
EC3    EC   0.04617  0.45383  0.29617
EC4    EC   0.04617  0.45383  0.70383
EC5    EC   0.04617  0.54617  0.29617
EC6    EC   0.04617  0.54617  0.70383
EC7    EC   0.04617  0.70383  0.45383
EC8    EC   0.04617  0.70383  0.54617
EC9    EC   0.04617  0.20383  0.45383
EC10   EC   0.04617  0.20383  0.54617
EC11   EC   0.04617  0.45383  0.20383
EC12   EC   0.04617  0.45383  0.79617
EC13   EC   0.04617  0.54617  0.20383
EC14   EC   0.04617  0.54617  0.79617
EC15   EC   0.04617  0.79617  0.45383
EC16   EC   0.04617  0.79617  0.54617
EC17   EC   0.20383  0.04617  0.45383
EC18   EC   0.20383  0.04617  0.54617
EC19   EC   0.20383  0.45383  0.04617
EC20   EC   0.20383  0.45383  0.95383
EC21   EC   0.20383  0.54617  0.04617
EC22   EC   0.20383  0.54617  0.95383
EC23   EC   0.20383  0.95383  0.45383
EC24   EC   0.20383  0.95383  0.54617
EC25   EC   0.29617  0.04617  0.45383
EC26   EC   0.29617  0.04617  0.54617
EC27   EC   0.29617  0.45383  0.04617
EC28   EC   0.29617  0.45383  0.95383
EC29   EC   0.29617  0.54617  0.04617
EC30   EC   0.29617  0.54617  0.95383
EC31   EC   0.29617  0.95383  0.45383
EC32   EC   0.29617  0.95383  0.54617
EC33   EC   0.45383  0.04617  0.29617
EC34   EC   0.45383  0.04617  0.70383
EC35   EC   0.45383  0.04617  0.20383
EC36   EC   0.45383  0.04617  0.79617
EC37   EC   0.45383  0.20383  0.04617
EC38   EC   0.45383  0.20383  0.95383
EC39   EC   0.45383  0.29617  0.04617
EC40   EC   0.45383  0.29617  0.95383
EC41   EC   0.45383  0.70383  0.04617
EC42   EC   0.45383  0.70383  0.95383
EC43   EC   0.45383  0.79617  0.04617
EC44   EC   0.45383  0.79617  0.95383
EC45   EC   0.45383  0.95383  0.20383
EC46   EC   0.45383  0.95383  0.29617
EC47   EC   0.45383  0.95383  0.70383
EC48   EC   0.45383  0.95383  0.79617
EC49   EC   0.54617  0.04617  0.29617
EC50   EC   0.54617  0.04617  0.70383
EC51   EC   0.54617  0.04617  0.20383
EC52   EC   0.54617  0.04617  0.79617
EC53   EC   0.54617  0.20383  0.04617
EC54   EC   0.54617  0.20383  0.95383
EC55   EC   0.54617  0.29617  0.04617
EC56   EC   0.54617  0.29617  0.95383
EC57   EC   0.54617  0.70383  0.04617
EC58   EC   0.54617  0.70383  0.95383
EC59   EC   0.54617  0.79617  0.04617
EC60   EC   0.54617  0.79617  0.95383
EC61   EC   0.54617  0.95383  0.20383
EC62   EC   0.54617  0.95383  0.29617
EC63   EC   0.54617  0.95383  0.70383
EC64   EC   0.54617  0.95383  0.79617
EC65   EC   0.70383  0.04617  0.45383
EC66   EC   0.70383  0.04617  0.54617
EC67   EC   0.70383  0.45383  0.04617
EC68   EC   0.70383  0.45383  0.95383
EC69   EC   0.70383  0.54617  0.04617
EC70   EC   0.70383  0.54617  0.95383
EC71   EC   0.70383  0.95383  0.45383
EC72   EC   0.70383  0.95383  0.54617
EC73   EC   0.79617  0.04617  0.45383
EC74   EC   0.79617  0.04617  0.54617
EC75   EC   0.79617  0.45383  0.04617
EC76   EC   0.79617  0.45383  0.95383
EC77   EC   0.79617  0.54617  0.04617
EC78   EC   0.79617  0.54617  0.95383
EC79   EC   0.79617  0.95383  0.45383
EC80   EC   0.79617  0.95383  0.54617
EC81   EC   0.95383  0.20383  0.45383
EC82   EC   0.95383  0.20383  0.54617
EC83   EC   0.95383  0.29617  0.45383
EC84   EC   0.95383  0.29617  0.54617
EC85   EC   0.95383  0.45383  0.20383
EC86   EC   0.95383  0.45383  0.29617
EC87   EC   0.95383  0.45383  0.70383
EC88   EC   0.95383  0.45383  0.79617
EC89   EC   0.95383  0.54617  0.20383
EC90   EC   0.95383  0.54617  0.29617
EC91   EC   0.95383  0.54617  0.70383
EC92   EC   0.95383  0.54617  0.79617
EC93   EC   0.95383  0.70383  0.45383
EC94   EC   0.95383  0.70383  0.54617
EC95   EC   0.95383  0.79617  0.45383
EC96   EC   0.95383  0.79617  0.54617
E1    E   0.00000  0.11148  0.45383
E2    E   0.00000  0.11148  0.54617
E3    E   0.00000  0.20383  0.45383
E4    E   0.00000  0.20383  0.54617
E5    E   0.00000  0.29617  0.45383
E6    E   0.00000  0.29617  0.54617
E7    E   0.00000  0.38852  0.45383
E8    E   0.00000  0.38852  0.54617
E9    E   0.00000  0.45383  0.11148
E10   E   0.00000  0.45383  0.20383
E11   E   0.00000  0.45383  0.29617
E12   E   0.00000  0.45383  0.38852
E13   E   0.00000  0.45383  0.61148
E14   E   0.00000  0.45383  0.70383
E15   E   0.00000  0.45383  0.79617
E16   E   0.00000  0.45383  0.88852
E17   E   0.00000  0.54617  0.11148
E18   E   0.00000  0.54617  0.20383
E19   E   0.00000  0.54617  0.29617
E20   E   0.00000  0.54617  0.38852
E21   E   0.00000  0.54617  0.61148
E22   E   0.00000  0.54617  0.70383
E23   E   0.00000  0.54617  0.79617
E24   E   0.00000  0.54617  0.88852
E25   E   0.00000  0.61148  0.45383
E26   E   0.00000  0.61148  0.54617
E27   E   0.00000  0.70383  0.45383
E28   E   0.00000  0.70383  0.54617
E29   E   0.00000  0.79617  0.45383
E30   E   0.00000  0.79617  0.54617
E31   E   0.00000  0.88852  0.45383
E32   E   0.00000  0.88852  0.54617
E33   E   0.04617  0.25000  0.45383
E34   E   0.04617  0.25000  0.54617
E35   E   0.04617  0.29617  0.50000
E36   E   0.04617  0.34235  0.45383
E37   E   0.04617  0.34235  0.54617
E38   E   0.04617  0.38852  0.50000
E39   E   0.04617  0.42117  0.42117
E40   E   0.04617  0.42117  0.57883
E41   E   0.04617  0.45383  0.25000
E42   E   0.04617  0.45383  0.34235
E43   E   0.04617  0.45383  0.65765
E44   E   0.04617  0.45383  0.75000
E45   E   0.04617  0.50000  0.29617
E46   E   0.04617  0.50000  0.38852
E47   E   0.04617  0.50000  0.61148
E48   E   0.04617  0.50000  0.70383
E49   E   0.04617  0.54617  0.25000
E50   E   0.04617  0.54617  0.34235
E51   E   0.04617  0.54617  0.65765
E52   E   0.04617  0.54617  0.75000
E53   E   0.04617  0.57883  0.42117
E54   E   0.04617  0.57883  0.57883
E55   E   0.04617  0.61148  0.50000
E56   E   0.04617  0.65765  0.45383
E57   E   0.04617  0.65765  0.54617
E58   E   0.04617  0.70383  0.50000
E59   E   0.04617  0.75000  0.45383
E60   E   0.04617  0.75000  0.54617
E61   E   0.04617  0.11148  0.50000
E62   E   0.04617  0.15765  0.45383
E63   E   0.04617  0.15765  0.54617
E64   E   0.04617  0.20383  0.50000
E65   E   0.04617  0.25000  0.45383
E66   E   0.04617  0.25000  0.54617
E67   E   0.04617  0.45383  0.15765
E68   E   0.04617  0.45383  0.25000
E69   E   0.04617  0.45383  0.75000
E70   E   0.04617  0.45383  0.84235
E71   E   0.04617  0.50000  0.11148
E72   E   0.04617  0.50000  0.20383
E73   E   0.04617  0.50000  0.79617
E74   E   0.04617  0.50000  0.88852
E75   E   0.04617  0.54617  0.15765
E76   E   0.04617  0.54617  0.25000
E77   E   0.04617  0.54617  0.75000
E78   E   0.04617  0.54617  0.84235
E79   E   0.04617  0.75000  0.45383
E80   E   0.04617  0.75000  0.54617
E81   E   0.04617  0.79617  0.50000
E82   E   0.04617  0.84235  0.45383
E83   E   0.04617  0.84235  0.54617
E84   E   0.04617  0.88852  0.50000
E85   E   0.07883  0.07883  0.45383
E86   E   0.07883  0.07883  0.54617
E87   E   0.07883  0.45383  0.07883
E88   E   0.07883  0.45383  0.92117
E89   E   0.07883  0.54617  0.07883
E90   E   0.07883  0.54617  0.92117
E91   E   0.07883  0.92117  0.45383
E92   E   0.07883  0.92117  0.54617
E93   E   0.11148  0.00000  0.45383
E94   E   0.11148  0.00000  0.54617
E95   E   0.11148  0.04617  0.50000
E96   E   0.11148  0.45383  0.00000
E97   E   0.11148  0.50000  0.04617
E98   E   0.11148  0.50000  0.95383
E99   E   0.11148  0.54617  0.00000
E100  E   0.11148  0.95383  0.50000
E101  E   0.15765  0.04617  0.45383
E102  E   0.15765  0.04617  0.54617
E103  E   0.15765  0.45383  0.04617
E104  E   0.15765  0.45383  0.95383
E105  E   0.15765  0.54617  0.04617
E106  E   0.15765  0.54617  0.95383
E107  E   0.15765  0.95383  0.45383
E108  E   0.15765  0.95383  0.54617
E109  E   0.20383  0.00000  0.45383
E110  E   0.20383  0.00000  0.54617
E111  E   0.20383  0.04617  0.50000
E112  E   0.20383  0.45383  0.00000
E113  E   0.20383  0.50000  0.04617
E114  E   0.20383  0.50000  0.95383
E115  E   0.20383  0.54617  0.00000
E116  E   0.20383  0.95383  0.50000
E117  E   0.25000  0.04617  0.45383
E118  E   0.25000  0.04617  0.54617
E119  E   0.25000  0.04617  0.45383
E120  E   0.25000  0.04617  0.54617
E121  E   0.25000  0.45383  0.04617
E122  E   0.25000  0.45383  0.04617
E123  E   0.25000  0.45383  0.95383
E124  E   0.25000  0.54617  0.04617
E125  E   0.25000  0.54617  0.04617
E126  E   0.25000  0.54617  0.95383
E127  E   0.25000  0.95383  0.45383
E128  E   0.25000  0.95383  0.54617
E129  E   0.29617  0.00000  0.45383
E130  E   0.29617  0.00000  0.54617
E131  E   0.29617  0.04617  0.50000
E132  E   0.29617  0.45383  0.00000
E133  E   0.29617  0.50000  0.04617
E134  E   0.29617  0.50000  0.95383
E135  E   0.29617  0.54617  0.00000
E136  E   0.29617  0.95383  0.50000
E137  E   0.34235  0.04617  0.45383
E138  E   0.34235  0.04617  0.54617
E139  E   0.34235  0.45383  0.04617
E140  E   0.34235  0.45383  0.95383
E141  E   0.34235  0.54617  0.04617
E142  E   0.34235  0.54617  0.95383
E143  E   0.34235  0.95383  0.45383
E144  E   0.34235  0.95383  0.54617
E145  E   0.38852  0.00000  0.45383
E146  E   0.38852  0.00000  0.54617
E147  E   0.38852  0.04617  0.50000
E148  E   0.38852  0.45383  0.00000
E149  E   0.38852  0.50000  0.04617
E150  E   0.38852  0.50000  0.95383
E151  E   0.38852  0.54617  0.00000
E152  E   0.38852  0.95383  0.50000
E153  E   0.42117  0.04617  0.42117
E154  E   0.42117  0.04617  0.57883
E155  E   0.42117  0.42117  0.04617
E156  E   0.42117  0.42117  0.95383
E157  E   0.42117  0.57883  0.04617
E158  E   0.42117  0.57883  0.95383
E159  E   0.42117  0.95383  0.42117
E160  E   0.42117  0.95383  0.57883
E161  E   0.45383  0.00000  0.11148
E162  E   0.45383  0.00000  0.20383
E163  E   0.45383  0.00000  0.29617
E164  E   0.45383  0.00000  0.38852
E165  E   0.45383  0.00000  0.61148
E166  E   0.45383  0.00000  0.70383
E167  E   0.45383  0.00000  0.79617
E168  E   0.45383  0.00000  0.88852
E169  E   0.45383  0.04617  0.25000
E170  E   0.45383  0.04617  0.34235
E171  E   0.45383  0.04617  0.65765
E172  E   0.45383  0.04617  0.75000
E173  E   0.45383  0.04617  0.15765
E174  E   0.45383  0.04617  0.25000
E175  E   0.45383  0.04617  0.75000
E176  E   0.45383  0.04617  0.84235
E177  E   0.45383  0.07883  0.07883
E178  E   0.45383  0.07883  0.92117
E179  E   0.45383  0.11148  0.00000
E180  E   0.45383  0.15765  0.04617
E181  E   0.45383  0.15765  0.95383
E182  E   0.45383  0.20383  0.00000
E183  E   0.45383  0.25000  0.04617
E184  E   0.45383  0.25000  0.04617
E185  E   0.45383  0.25000  0.95383
E186  E   0.45383  0.29617  0.00000
E187  E   0.45383  0.34235  0.04617
E188  E   0.45383  0.34235  0.95383
E189  E   0.45383  0.38852  0.00000
E190  E   0.45383  0.61148  0.00000
E191  E   0.45383  0.65765  0.04617
E192  E   0.45383  0.65765  0.95383
E193  E   0.45383  0.70383  0.00000
E194  E   0.45383  0.75000  0.04617
E195  E   0.45383  0.75000  0.04617
E196  E   0.45383  0.75000  0.95383
E197  E   0.45383  0.79617  0.00000
E198  E   0.45383  0.84235  0.04617
E199  E   0.45383  0.84235  0.95383
E200  E   0.45383  0.88852  0.00000
E201  E   0.45383  0.92117  0.07883
E202  E   0.45383  0.92117  0.92117
E203  E   0.45383  0.95383  0.15765
E204  E   0.45383  0.95383  0.25000
E205  E   0.45383  0.95383  0.34235
E206  E   0.45383  0.95383  0.65765
E207  E   0.45383  0.95383  0.75000
E208  E   0.45383  0.95383  0.84235
E209  E   0.50000  0.04617  0.29617
E210  E   0.50000  0.04617  0.38852
E211  E   0.50000  0.04617  0.61148
E212  E   0.50000  0.04617  0.70383
E213  E   0.50000  0.04617  0.11148
E214  E   0.50000  0.04617  0.20383
E215  E   0.50000  0.04617  0.79617
E216  E   0.50000  0.04617  0.88852
E217  E   0.50000  0.11148  0.04617
E218  E   0.50000  0.11148  0.95383
E219  E   0.50000  0.20383  0.04617
E220  E   0.50000  0.20383  0.95383
E221  E   0.50000  0.29617  0.04617
E222  E   0.50000  0.29617  0.95383
E223  E   0.50000  0.38852  0.04617
E224  E   0.50000  0.38852  0.95383
E225  E   0.50000  0.61148  0.04617
E226  E   0.50000  0.61148  0.95383
E227  E   0.50000  0.70383  0.04617
E228  E   0.50000  0.70383  0.95383
E229  E   0.50000  0.79617  0.04617
E230  E   0.50000  0.79617  0.95383
E231  E   0.50000  0.88852  0.04617
E232  E   0.50000  0.88852  0.95383
E233  E   0.50000  0.95383  0.11148
E234  E   0.50000  0.95383  0.20383
E235  E   0.50000  0.95383  0.29617
E236  E   0.50000  0.95383  0.38852
E237  E   0.50000  0.95383  0.61148
E238  E   0.50000  0.95383  0.70383
E239  E   0.50000  0.95383  0.79617
E240  E   0.50000  0.95383  0.88852
E241  E   0.54617  0.00000  0.11148
E242  E   0.54617  0.00000  0.20383
E243  E   0.54617  0.00000  0.29617
E244  E   0.54617  0.00000  0.38852
E245  E   0.54617  0.00000  0.61148
E246  E   0.54617  0.00000  0.70383
E247  E   0.54617  0.00000  0.79617
E248  E   0.54617  0.00000  0.88852
E249  E   0.54617  0.04617  0.25000
E250  E   0.54617  0.04617  0.34235
E251  E   0.54617  0.04617  0.65765
E252  E   0.54617  0.04617  0.75000
E253  E   0.54617  0.04617  0.15765
E254  E   0.54617  0.04617  0.25000
E255  E   0.54617  0.04617  0.75000
E256  E   0.54617  0.04617  0.84235
E257  E   0.54617  0.07883  0.07883
E258  E   0.54617  0.07883  0.92117
E259  E   0.54617  0.11148  0.00000
E260  E   0.54617  0.15765  0.04617
E261  E   0.54617  0.15765  0.95383
E262  E   0.54617  0.20383  0.00000
E263  E   0.54617  0.25000  0.04617
E264  E   0.54617  0.25000  0.04617
E265  E   0.54617  0.25000  0.95383
E266  E   0.54617  0.29617  0.00000
E267  E   0.54617  0.34235  0.04617
E268  E   0.54617  0.34235  0.95383
E269  E   0.54617  0.38852  0.00000
E270  E   0.54617  0.61148  0.00000
E271  E   0.54617  0.65765  0.04617
E272  E   0.54617  0.65765  0.95383
E273  E   0.54617  0.70383  0.00000
E274  E   0.54617  0.75000  0.04617
E275  E   0.54617  0.75000  0.04617
E276  E   0.54617  0.75000  0.95383
E277  E   0.54617  0.79617  0.00000
E278  E   0.54617  0.84235  0.04617
E279  E   0.54617  0.84235  0.95383
E280  E   0.54617  0.88852  0.00000
E281  E   0.54617  0.92117  0.07883
E282  E   0.54617  0.92117  0.92117
E283  E   0.54617  0.95383  0.15765
E284  E   0.54617  0.95383  0.25000
E285  E   0.54617  0.95383  0.34235
E286  E   0.54617  0.95383  0.65765
E287  E   0.54617  0.95383  0.75000
E288  E   0.54617  0.95383  0.84235
E289  E   0.57883  0.04617  0.42117
E290  E   0.57883  0.04617  0.57883
E291  E   0.57883  0.42117  0.04617
E292  E   0.57883  0.42117  0.95383
E293  E   0.57883  0.57883  0.04617
E294  E   0.57883  0.57883  0.95383
E295  E   0.57883  0.95383  0.42117
E296  E   0.57883  0.95383  0.57883
E297  E   0.61148  0.00000  0.45383
E298  E   0.61148  0.00000  0.54617
E299  E   0.61148  0.04617  0.50000
E300  E   0.61148  0.45383  0.00000
E301  E   0.61148  0.50000  0.04617
E302  E   0.61148  0.50000  0.95383
E303  E   0.61148  0.54617  0.00000
E304  E   0.61148  0.95383  0.50000
E305  E   0.65765  0.04617  0.45383
E306  E   0.65765  0.04617  0.54617
E307  E   0.65765  0.45383  0.04617
E308  E   0.65765  0.45383  0.95383
E309  E   0.65765  0.54617  0.04617
E310  E   0.65765  0.54617  0.95383
E311  E   0.65765  0.95383  0.45383
E312  E   0.65765  0.95383  0.54617
E313  E   0.70383  0.00000  0.45383
E314  E   0.70383  0.00000  0.54617
E315  E   0.70383  0.04617  0.50000
E316  E   0.70383  0.45383  0.00000
E317  E   0.70383  0.50000  0.04617
E318  E   0.70383  0.50000  0.95383
E319  E   0.70383  0.54617  0.00000
E320  E   0.70383  0.95383  0.50000
E321  E   0.75000  0.04617  0.45383
E322  E   0.75000  0.04617  0.54617
E323  E   0.75000  0.04617  0.45383
E324  E   0.75000  0.04617  0.54617
E325  E   0.75000  0.45383  0.04617
E326  E   0.75000  0.45383  0.04617
E327  E   0.75000  0.45383  0.95383
E328  E   0.75000  0.54617  0.04617
E329  E   0.75000  0.54617  0.04617
E330  E   0.75000  0.54617  0.95383
E331  E   0.75000  0.95383  0.45383
E332  E   0.75000  0.95383  0.54617
E333  E   0.79617  0.00000  0.45383
E334  E   0.79617  0.00000  0.54617
E335  E   0.79617  0.04617  0.50000
E336  E   0.79617  0.45383  0.00000
E337  E   0.79617  0.50000  0.04617
E338  E   0.79617  0.50000  0.95383
E339  E   0.79617  0.54617  0.00000
E340  E   0.79617  0.95383  0.50000
E341  E   0.84235  0.04617  0.45383
E342  E   0.84235  0.04617  0.54617
E343  E   0.84235  0.45383  0.04617
E344  E   0.84235  0.45383  0.95383
E345  E   0.84235  0.54617  0.04617
E346  E   0.84235  0.54617  0.95383
E347  E   0.84235  0.95383  0.45383
E348  E   0.84235  0.95383  0.54617
E349  E   0.88852  0.00000  0.45383
E350  E   0.88852  0.00000  0.54617
E351  E   0.88852  0.04617  0.50000
E352  E   0.88852  0.45383  0.00000
E353  E   0.88852  0.50000  0.04617
E354  E   0.88852  0.50000  0.95383
E355  E   0.88852  0.54617  0.00000
E356  E   0.88852  0.95383  0.50000
E357  E   0.92117  0.07883  0.45383
E358  E   0.92117  0.07883  0.54617
E359  E   0.92117  0.45383  0.07883
E360  E   0.92117  0.45383  0.92117
E361  E   0.92117  0.54617  0.07883
E362  E   0.92117  0.54617  0.92117
E363  E   0.92117  0.92117  0.45383
E364  E   0.92117  0.92117  0.54617
E365  E   0.95383  0.11148  0.50000
E366  E   0.95383  0.15765  0.45383
E367  E   0.95383  0.15765  0.54617
E368  E   0.95383  0.20383  0.50000
E369  E   0.95383  0.25000  0.45383
E370  E   0.95383  0.25000  0.54617
E371  E   0.95383  0.29617  0.50000
E372  E   0.95383  0.34235  0.45383
E373  E   0.95383  0.34235  0.54617
E374  E   0.95383  0.38852  0.50000
E375  E   0.95383  0.42117  0.42117
E376  E   0.95383  0.42117  0.57883
E377  E   0.95383  0.45383  0.15765
E378  E   0.95383  0.45383  0.25000
E379  E   0.95383  0.45383  0.34235
E380  E   0.95383  0.45383  0.65765
E381  E   0.95383  0.45383  0.75000
E382  E   0.95383  0.45383  0.84235
E383  E   0.95383  0.50000  0.11148
E384  E   0.95383  0.50000  0.20383
E385  E   0.95383  0.50000  0.29617
E386  E   0.95383  0.50000  0.38852
E387  E   0.95383  0.50000  0.61148
E388  E   0.95383  0.50000  0.70383
E389  E   0.95383  0.50000  0.79617
E390  E   0.95383  0.50000  0.88852
E391  E   0.95383  0.54617  0.15765
E392  E   0.95383  0.54617  0.25000
E393  E   0.95383  0.54617  0.34235
E394  E   0.95383  0.54617  0.65765
E395  E   0.95383  0.54617  0.75000
E396  E   0.95383  0.54617  0.84235
E397  E   0.95383  0.57883  0.42117
E398  E   0.95383  0.57883  0.57883
E399  E   0.95383  0.61148  0.50000
E400  E   0.95383  0.65765  0.45383
E401  E   0.95383  0.65765  0.54617
E402  E   0.95383  0.70383  0.50000
E403  E   0.95383  0.75000  0.45383
E404  E   0.95383  0.75000  0.54617
E405  E   0.95383  0.79617  0.50000
E406  E   0.95383  0.84235  0.45383
E407  E   0.95383  0.84235  0.54617
E408  E   0.95383  0.88852  0.50000
loop_
