data_ban_I41/amd:2  hall_number: 427, V_con: 4, EC_con: 4
_audit_creation_date              2025-03-05
_audit_creation_method            'MOFbuilder_1.0'
_symmetry_space_group_name_H-M    'P1'
_symmetry_Int_Tables_number       1
_symmetry_cell_setting            triclinic
loop_
_symmetry_equiv_pos_as_xyz
  x,y,z
_cell_length_a                    47.107299999999995
_cell_length_b                    47.107299999999995
_cell_length_c                    83.80179999999999
_cell_angle_alpha                 90.0
_cell_angle_beta                  90.0
_cell_angle_gamma                 90.0
loop_
_atom_site_label
_atom_site_type_symbol
_atom_site_fract_x
_atom_site_fract_y
_atom_site_fract_z
V1    V   0.10614  0.14386  0.02360
V2    V   0.10614  0.35614  0.02360
V3    V   0.10614  0.64386  0.97640
V4    V   0.10614  0.85614  0.97640
V5    V   0.10614  0.14386  0.72640
V6    V   0.10614  0.35614  0.72640
V7    V   0.10614  0.64386  0.27360
V8    V   0.10614  0.85614  0.27360
V9    V   0.39386  0.14386  0.47640
V10   V   0.39386  0.14386  0.77360
V11   V   0.39386  0.35614  0.47640
V12   V   0.39386  0.35614  0.77360
V13   V   0.39386  0.64386  0.22640
V14   V   0.39386  0.64386  0.52360
V15   V   0.39386  0.85614  0.22640
V16   V   0.39386  0.85614  0.52360
V17   V   0.60614  0.14386  0.47640
V18   V   0.60614  0.14386  0.77360
V19   V   0.60614  0.35614  0.47640
V20   V   0.60614  0.35614  0.77360
V21   V   0.60614  0.64386  0.22640
V22   V   0.60614  0.64386  0.52360
V23   V   0.60614  0.85614  0.22640
V24   V   0.60614  0.85614  0.52360
V25   V   0.89386  0.14386  0.02360
V26   V   0.89386  0.14386  0.72640
V27   V   0.89386  0.35614  0.02360
V28   V   0.89386  0.35614  0.72640
V29   V   0.89386  0.64386  0.27360
V30   V   0.89386  0.64386  0.97640
V31   V   0.89386  0.85614  0.27360
V32   V   0.89386  0.85614  0.97640
EC1    EC   0.10614  0.04212  0.91887
EC2    EC   0.10614  0.45788  0.91887
EC3    EC   0.10614  0.54212  0.08113
EC4    EC   0.10614  0.95788  0.08113
EC5    EC   0.20788  0.14386  0.83113
EC6    EC   0.20788  0.35614  0.83113
EC7    EC   0.20788  0.64386  0.16887
EC8    EC   0.20788  0.85614  0.16887
EC9    EC   0.29212  0.14386  0.66887
EC10   EC   0.29212  0.35614  0.66887
EC11   EC   0.29212  0.64386  0.33113
EC12   EC   0.29212  0.85614  0.33113
EC13   EC   0.39386  0.04212  0.58113
EC14   EC   0.39386  0.45788  0.58113
EC15   EC   0.39386  0.54212  0.41887
EC16   EC   0.39386  0.95788  0.41887
EC17   EC   0.60614  0.04212  0.58113
EC18   EC   0.60614  0.45788  0.58113
EC19   EC   0.60614  0.54212  0.41887
EC20   EC   0.60614  0.95788  0.41887
EC21   EC   0.70788  0.14386  0.66887
EC22   EC   0.70788  0.35614  0.66887
EC23   EC   0.70788  0.64386  0.33113
EC24   EC   0.70788  0.85614  0.33113
EC25   EC   0.79212  0.14386  0.83113
EC26   EC   0.79212  0.35614  0.83113
EC27   EC   0.79212  0.64386  0.16887
EC28   EC   0.79212  0.85614  0.16887
EC29   EC   0.89386  0.04212  0.91887
EC30   EC   0.89386  0.45788  0.91887
EC31   EC   0.89386  0.54212  0.08113
EC32   EC   0.89386  0.95788  0.08113
E1    E   0.00000  0.04212  0.91887
E2    E   0.00000  0.14386  0.02360
E3    E   0.00000  0.14386  0.72640
E4    E   0.00000  0.35614  0.02360
E5    E   0.00000  0.35614  0.72640
E6    E   0.00000  0.45788  0.91887
E7    E   0.00000  0.54212  0.08113
E8    E   0.00000  0.64386  0.27360
E9    E   0.00000  0.64386  0.97640
E10   E   0.00000  0.85614  0.27360
E11   E   0.00000  0.85614  0.97640
E12   E   0.00000  0.95788  0.08113
E13   E   0.10614  0.05087  0.05237
E14   E   0.10614  0.09299  0.97123
E15   E   0.10614  0.25000  0.02360
E16   E   0.10614  0.40701  0.97123
E17   E   0.10614  0.44913  0.05237
E18   E   0.10614  0.55087  0.94763
E19   E   0.10614  0.59299  0.02877
E20   E   0.10614  0.75000  0.97640
E21   E   0.10614  0.90701  0.02877
E22   E   0.10614  0.94913  0.94763
E23   E   0.10614  0.25000  0.72640
E24   E   0.10614  0.75000  0.27360
E25   E   0.15701  0.09299  0.87500
E26   E   0.15701  0.14386  0.77877
E27   E   0.15701  0.35614  0.77877
E28   E   0.15701  0.40701  0.87500
E29   E   0.15701  0.59299  0.12500
E30   E   0.15701  0.64386  0.22123
E31   E   0.15701  0.85614  0.22123
E32   E   0.15701  0.90701  0.12500
E33   E   0.15701  0.09299  0.87500
E34   E   0.15701  0.40701  0.87500
E35   E   0.15701  0.59299  0.12500
E36   E   0.15701  0.90701  0.12500
E37   E   0.19913  0.14386  0.69763
E38   E   0.19913  0.35614  0.69763
E39   E   0.19913  0.64386  0.30237
E40   E   0.19913  0.85614  0.30237
E41   E   0.20788  0.25000  0.83113
E42   E   0.20788  0.75000  0.16887
E43   E   0.29212  0.25000  0.66887
E44   E   0.29212  0.75000  0.33113
E45   E   0.30087  0.14386  0.80237
E46   E   0.30087  0.35614  0.80237
E47   E   0.30087  0.64386  0.19763
E48   E   0.30087  0.85614  0.19763
E49   E   0.34299  0.09299  0.62500
E50   E   0.34299  0.40701  0.62500
E51   E   0.34299  0.59299  0.37500
E52   E   0.34299  0.90701  0.37500
E53   E   0.34299  0.09299  0.62500
E54   E   0.34299  0.14386  0.72123
E55   E   0.34299  0.35614  0.72123
E56   E   0.34299  0.40701  0.62500
E57   E   0.34299  0.59299  0.37500
E58   E   0.34299  0.64386  0.27877
E59   E   0.34299  0.85614  0.27877
E60   E   0.34299  0.90701  0.37500
E61   E   0.39386  0.05087  0.44763
E62   E   0.39386  0.09299  0.52877
E63   E   0.39386  0.25000  0.47640
E64   E   0.39386  0.25000  0.77360
E65   E   0.39386  0.40701  0.52877
E66   E   0.39386  0.44913  0.44763
E67   E   0.39386  0.55087  0.55237
E68   E   0.39386  0.59299  0.47123
E69   E   0.39386  0.75000  0.22640
E70   E   0.39386  0.75000  0.52360
E71   E   0.39386  0.90701  0.47123
E72   E   0.39386  0.94913  0.55237
E73   E   0.50000  0.04212  0.58113
E74   E   0.50000  0.14386  0.47640
E75   E   0.50000  0.14386  0.77360
E76   E   0.50000  0.35614  0.47640
E77   E   0.50000  0.35614  0.77360
E78   E   0.50000  0.45788  0.58113
E79   E   0.50000  0.54212  0.41887
E80   E   0.50000  0.64386  0.22640
E81   E   0.50000  0.64386  0.52360
E82   E   0.50000  0.85614  0.22640
E83   E   0.50000  0.85614  0.52360
E84   E   0.50000  0.95788  0.41887
E85   E   0.60614  0.05087  0.44763
E86   E   0.60614  0.09299  0.52877
E87   E   0.60614  0.25000  0.47640
E88   E   0.60614  0.25000  0.77360
E89   E   0.60614  0.40701  0.52877
E90   E   0.60614  0.44913  0.44763
E91   E   0.60614  0.55087  0.55237
E92   E   0.60614  0.59299  0.47123
E93   E   0.60614  0.75000  0.22640
E94   E   0.60614  0.75000  0.52360
E95   E   0.60614  0.90701  0.47123
E96   E   0.60614  0.94913  0.55237
E97   E   0.65701  0.09299  0.62500
E98   E   0.65701  0.09299  0.62500
E99   E   0.65701  0.14386  0.72123
E100  E   0.65701  0.35614  0.72123
E101  E   0.65701  0.40701  0.62500
E102  E   0.65701  0.59299  0.37500
E103  E   0.65701  0.64386  0.27877
E104  E   0.65701  0.85614  0.27877
E105  E   0.65701  0.90701  0.37500
E106  E   0.69913  0.14386  0.80237
E107  E   0.69913  0.35614  0.80237
E108  E   0.69913  0.64386  0.19763
E109  E   0.69913  0.85614  0.19763
E110  E   0.70788  0.25000  0.66887
E111  E   0.70788  0.75000  0.33113
E112  E   0.79212  0.25000  0.83113
E113  E   0.79212  0.75000  0.16887
E114  E   0.80087  0.14386  0.69763
E115  E   0.80087  0.35614  0.69763
E116  E   0.80087  0.64386  0.30237
E117  E   0.80087  0.85614  0.30237
E118  E   0.84299  0.09299  0.87500
E119  E   0.84299  0.09299  0.87500
E120  E   0.84299  0.14386  0.77877
E121  E   0.84299  0.35614  0.77877
E122  E   0.84299  0.40701  0.87500
E123  E   0.84299  0.59299  0.12500
E124  E   0.84299  0.64386  0.22123
E125  E   0.84299  0.85614  0.22123
E126  E   0.84299  0.90701  0.12500
E127  E   0.89386  0.05087  0.05237
E128  E   0.89386  0.09299  0.97123
E129  E   0.89386  0.25000  0.02360
E130  E   0.89386  0.25000  0.72640
E131  E   0.89386  0.40701  0.97123
E132  E   0.89386  0.44913  0.05237
E133  E   0.89386  0.55087  0.94763
E134  E   0.89386  0.59299  0.02877
E135  E   0.89386  0.75000  0.27360
E136  E   0.89386  0.75000  0.97640
E137  E   0.89386  0.90701  0.02877
E138  E   0.89386  0.94913  0.94763
loop_
