data_bao_P6/mmm  hall_number: 485, V_con: 4, EC_con: 4
_audit_creation_date              2025-03-05
_audit_creation_method            'MOFbuilder_1.0'
_symmetry_space_group_name_H-M    'P1'
_symmetry_Int_Tables_number       1
_symmetry_cell_setting            triclinic
loop_
_symmetry_equiv_pos_as_xyz
  x,y,z
_cell_length_a                    30.8487
_cell_length_b                    30.8487
_cell_length_c                    22.489400000000003
_cell_angle_alpha                 90.0
_cell_angle_beta                  90.0
_cell_angle_gamma                 120.0
loop_
_atom_site_label
_atom_site_type_symbol
_atom_site_fract_x
_atom_site_fract_y
_atom_site_fract_z
V1    V   0.33333  0.66666  0.22233
V2    V   0.33333  0.66666  0.77767
V3    V   0.33333  0.66667  0.22233
V4    V   0.33333  0.66667  0.77767
V5    V   0.33334  0.66667  0.22233
V6    V   0.33334  0.66667  0.77767
V7    V   0.66666  0.33333  0.22233
V8    V   0.66666  0.33333  0.77767
V9    V   0.66667  0.33333  0.22233
V10   V   0.66667  0.33333  0.77767
V11   V   0.66667  0.33334  0.22233
V12   V   0.66667  0.33334  0.77767
EC1    EC   0.18715  0.37431  0.50000
EC2    EC   0.18715  0.81284  0.50000
EC3    EC   0.18716  0.37431  0.50000
EC4    EC   0.18716  0.81285  0.50000
EC5    EC   0.37431  0.18715  0.50000
EC6    EC   0.37431  0.18716  0.50000
EC7    EC   0.62569  0.81284  0.50000
EC8    EC   0.62569  0.81285  0.50000
EC9    EC   0.81284  0.18715  0.50000
EC10   EC   0.81284  0.62569  0.50000
EC11   EC   0.81285  0.18716  0.50000
EC12   EC   0.81285  0.62569  0.50000
E1    E   0.00000  0.28074  0.50000
E2    E   0.00000  0.71926  0.50000
E3    E   0.26024  0.52049  0.36116
E4    E   0.26024  0.52049  0.63884
E5    E   0.26024  0.73975  0.36116
E6    E   0.26024  0.73975  0.63884
E7    E   0.26025  0.52049  0.36116
E8    E   0.26025  0.52049  0.63884
E9    E   0.26025  0.73976  0.36116
E10   E   0.26025  0.73976  0.63884
E11   E   0.28074  0.00000  0.50000
E12   E   0.28074  0.28074  0.50000
E13   E   0.33333  0.66666  0.00000
E14   E   0.33333  0.66667  0.00000
E15   E   0.33334  0.66667  0.00000
E16   E   0.47951  0.73975  0.36116
E17   E   0.47951  0.73975  0.63884
E18   E   0.47951  0.73976  0.36116
E19   E   0.47951  0.73976  0.63884
E20   E   0.52049  0.26024  0.36116
E21   E   0.52049  0.26024  0.63884
E22   E   0.52049  0.26025  0.36116
E23   E   0.52049  0.26025  0.63884
E24   E   0.66666  0.33333  0.00000
E25   E   0.66667  0.33333  0.00000
E26   E   0.66667  0.33334  0.00000
E27   E   0.71926  0.00000  0.50000
E28   E   0.71926  0.71926  0.50000
E29   E   0.73975  0.26024  0.36116
E30   E   0.73975  0.26024  0.63884
E31   E   0.73975  0.47951  0.36116
E32   E   0.73975  0.47951  0.63884
E33   E   0.73976  0.26025  0.36116
E34   E   0.73976  0.26025  0.63884
E35   E   0.73976  0.47951  0.36116
E36   E   0.73976  0.47951  0.63884
loop_
