data_bap_P63/mcm  hall_number: 487, V_con: 4, EC_con: 4
_audit_creation_date              2025-03-05
_audit_creation_method            'MOFbuilder_1.0'
_symmetry_space_group_name_H-M    'P1'
_symmetry_Int_Tables_number       1
_symmetry_cell_setting            triclinic
loop_
_symmetry_equiv_pos_as_xyz
  x,y,z
_cell_length_a                    41.2958
_cell_length_b                    41.2958
_cell_length_c                    56.0658
_cell_angle_alpha                 90.0
_cell_angle_beta                  90.0
_cell_angle_gamma                 120.0
loop_
_atom_site_label
_atom_site_type_symbol
_atom_site_fract_x
_atom_site_fract_y
_atom_site_fract_z
V1    V   0.33333  0.66666  0.16082
V2    V   0.33333  0.66666  0.33918
V3    V   0.33333  0.66666  0.66082
V4    V   0.33333  0.66666  0.83918
V5    V   0.33333  0.66667  0.16082
V6    V   0.33333  0.66667  0.33918
V7    V   0.33333  0.66667  0.66082
V8    V   0.33333  0.66667  0.83918
V9    V   0.33334  0.66667  0.16082
V10   V   0.33334  0.66667  0.33918
V11   V   0.33334  0.66667  0.66082
V12   V   0.33334  0.66667  0.83918
V13   V   0.66666  0.33333  0.16082
V14   V   0.66666  0.33333  0.33918
V15   V   0.66666  0.33333  0.66082
V16   V   0.66666  0.33333  0.83918
V17   V   0.66667  0.33333  0.16082
V18   V   0.66667  0.33333  0.33918
V19   V   0.66667  0.33333  0.66082
V20   V   0.66667  0.33333  0.83918
V21   V   0.66667  0.33334  0.16082
V22   V   0.66667  0.33334  0.33918
V23   V   0.66667  0.33334  0.66082
V24   V   0.66667  0.33334  0.83918
EC1    EC   0.13981  0.47314  0.05361
EC2    EC   0.13981  0.47314  0.44639
EC3    EC   0.13981  0.66667  0.55361
EC4    EC   0.13981  0.66667  0.94639
EC5    EC   0.33333  0.47314  0.55361
EC6    EC   0.33333  0.47314  0.94639
EC7    EC   0.33333  0.86019  0.05361
EC8    EC   0.33333  0.86019  0.44639
EC9    EC   0.47314  0.13981  0.05361
EC10   EC   0.47314  0.13981  0.44639
EC11   EC   0.47314  0.33333  0.55361
EC12   EC   0.47314  0.33333  0.94639
EC13   EC   0.52686  0.66667  0.05361
EC14   EC   0.52686  0.66667  0.44639
EC15   EC   0.52686  0.86019  0.55361
EC16   EC   0.52686  0.86019  0.94639
EC17   EC   0.66667  0.13981  0.55361
EC18   EC   0.66667  0.13981  0.94639
EC19   EC   0.66667  0.52686  0.05361
EC20   EC   0.66667  0.52686  0.44639
EC21   EC   0.86019  0.33333  0.05361
EC22   EC   0.86019  0.33333  0.44639
EC23   EC   0.86019  0.52686  0.55361
EC24   EC   0.86019  0.52686  0.94639
E1    E   0.00000  0.40324  0.05361
E2    E   0.00000  0.40324  0.44639
E3    E   0.00000  0.59676  0.55361
E4    E   0.00000  0.59676  0.94639
E5    E   0.13981  0.56990  0.00000
E6    E   0.13981  0.56990  0.50000
E7    E   0.13981  0.56991  0.00000
E8    E   0.13981  0.56991  0.50000
E9    E   0.23657  0.47314  0.00000
E10   E   0.23657  0.47314  0.50000
E11   E   0.23657  0.56990  0.10721
E12   E   0.23657  0.56990  0.39279
E13   E   0.23657  0.66667  0.60721
E14   E   0.23657  0.66667  0.89279
E15   E   0.23657  0.76343  0.00000
E16   E   0.23657  0.76343  0.50000
E17   E   0.33333  0.56990  0.60721
E18   E   0.33333  0.56990  0.89279
E19   E   0.33333  0.76343  0.10721
E20   E   0.33333  0.76343  0.39279
E21   E   0.33333  0.66666  0.25000
E22   E   0.33333  0.66666  0.75000
E23   E   0.33333  0.66667  0.25000
E24   E   0.33333  0.66667  0.75000
E25   E   0.33334  0.66667  0.25000
E26   E   0.33334  0.66667  0.75000
E27   E   0.40324  0.00000  0.05361
E28   E   0.40324  0.00000  0.44639
E29   E   0.40324  0.40324  0.55361
E30   E   0.40324  0.40324  0.94639
E31   E   0.43009  0.56990  0.00000
E32   E   0.43009  0.56990  0.50000
E33   E   0.43009  0.86019  0.00000
E34   E   0.43009  0.86019  0.50000
E35   E   0.43010  0.56991  0.00000
E36   E   0.43010  0.56991  0.50000
E37   E   0.43010  0.66667  0.10721
E38   E   0.43010  0.66667  0.39279
E39   E   0.43010  0.76343  0.60721
E40   E   0.43010  0.76343  0.89279
E41   E   0.43010  0.86019  0.00000
E42   E   0.43010  0.86019  0.50000
E43   E   0.47314  0.23657  0.00000
E44   E   0.47314  0.23657  0.50000
E45   E   0.52686  0.76343  0.00000
E46   E   0.52686  0.76343  0.50000
E47   E   0.56990  0.13981  0.00000
E48   E   0.56990  0.13981  0.50000
E49   E   0.56990  0.23657  0.10721
E50   E   0.56990  0.23657  0.39279
E51   E   0.56990  0.33333  0.60721
E52   E   0.56990  0.33333  0.89279
E53   E   0.56990  0.43009  0.00000
E54   E   0.56990  0.43009  0.50000
E55   E   0.56991  0.13981  0.00000
E56   E   0.56991  0.13981  0.50000
E57   E   0.56991  0.43010  0.00000
E58   E   0.56991  0.43010  0.50000
E59   E   0.59676  0.00000  0.55361
E60   E   0.59676  0.00000  0.94639
E61   E   0.59676  0.59676  0.05361
E62   E   0.59676  0.59676  0.44639
E63   E   0.66666  0.33333  0.25000
E64   E   0.66666  0.33333  0.75000
E65   E   0.66667  0.33333  0.25000
E66   E   0.66667  0.33333  0.75000
E67   E   0.66667  0.33334  0.25000
E68   E   0.66667  0.33334  0.75000
E69   E   0.66667  0.23657  0.60721
E70   E   0.66667  0.23657  0.89279
E71   E   0.66667  0.43010  0.10721
E72   E   0.66667  0.43010  0.39279
E73   E   0.76343  0.23657  0.00000
E74   E   0.76343  0.23657  0.50000
E75   E   0.76343  0.33333  0.10721
E76   E   0.76343  0.33333  0.39279
E77   E   0.76343  0.43010  0.60721
E78   E   0.76343  0.43010  0.89279
E79   E   0.76343  0.52686  0.00000
E80   E   0.76343  0.52686  0.50000
E81   E   0.86019  0.43009  0.00000
E82   E   0.86019  0.43009  0.50000
E83   E   0.86019  0.43010  0.00000
E84   E   0.86019  0.43010  0.50000
loop_
