data_bar_Fm-3m  hall_number: 523, V_con: 4, EC_con: 4
_audit_creation_date              2025-03-05
_audit_creation_method            'MOFbuilder_1.0'
_symmetry_space_group_name_H-M    'P1'
_symmetry_Int_Tables_number       1
_symmetry_cell_setting            triclinic
loop_
_symmetry_equiv_pos_as_xyz
  x,y,z
_cell_length_a                    85.5205
_cell_length_b                    85.5205
_cell_length_c                    85.5205
_cell_angle_alpha                 90.0
_cell_angle_beta                  90.0
_cell_angle_gamma                 90.0
loop_
_atom_site_label
_atom_site_type_symbol
_atom_site_fract_x
_atom_site_fract_y
_atom_site_fract_z
V1    V   0.05847  0.14115  0.35885
V2    V   0.05847  0.14115  0.64115
V3    V   0.05847  0.35885  0.14115
V4    V   0.05847  0.35885  0.85885
V5    V   0.05847  0.64115  0.14115
V6    V   0.05847  0.64115  0.85885
V7    V   0.05847  0.85885  0.35885
V8    V   0.05847  0.85885  0.64115
V9    V   0.14115  0.05847  0.35885
V10   V   0.14115  0.05847  0.64115
V11   V   0.14115  0.14115  0.44153
V12   V   0.14115  0.14115  0.55847
V13   V   0.14115  0.35885  0.05847
V14   V   0.14115  0.35885  0.94153
V15   V   0.14115  0.44153  0.14115
V16   V   0.14115  0.44153  0.85885
V17   V   0.14115  0.55847  0.14115
V18   V   0.14115  0.55847  0.85885
V19   V   0.14115  0.64115  0.05847
V20   V   0.14115  0.64115  0.94153
V21   V   0.14115  0.85885  0.44153
V22   V   0.14115  0.85885  0.55847
V23   V   0.14115  0.94153  0.35885
V24   V   0.14115  0.94153  0.64115
V25   V   0.35885  0.05847  0.14115
V26   V   0.35885  0.05847  0.85885
V27   V   0.35885  0.14115  0.05847
V28   V   0.35885  0.14115  0.94153
V29   V   0.35885  0.35885  0.44153
V30   V   0.35885  0.35885  0.55847
V31   V   0.35885  0.44153  0.35885
V32   V   0.35885  0.44153  0.64115
V33   V   0.35885  0.55847  0.35885
V34   V   0.35885  0.55847  0.64115
V35   V   0.35885  0.64115  0.44153
V36   V   0.35885  0.64115  0.55847
V37   V   0.35885  0.85885  0.05847
V38   V   0.35885  0.85885  0.94153
V39   V   0.35885  0.94153  0.14115
V40   V   0.35885  0.94153  0.85885
V41   V   0.44153  0.14115  0.14115
V42   V   0.44153  0.14115  0.85885
V43   V   0.44153  0.35885  0.35885
V44   V   0.44153  0.35885  0.64115
V45   V   0.44153  0.64115  0.35885
V46   V   0.44153  0.64115  0.64115
V47   V   0.44153  0.85885  0.14115
V48   V   0.44153  0.85885  0.85885
V49   V   0.55847  0.14115  0.14115
V50   V   0.55847  0.14115  0.85885
V51   V   0.55847  0.35885  0.35885
V52   V   0.55847  0.35885  0.64115
V53   V   0.55847  0.64115  0.35885
V54   V   0.55847  0.64115  0.64115
V55   V   0.55847  0.85885  0.14115
V56   V   0.55847  0.85885  0.85885
V57   V   0.64115  0.05847  0.14115
V58   V   0.64115  0.05847  0.85885
V59   V   0.64115  0.14115  0.05847
V60   V   0.64115  0.14115  0.94153
V61   V   0.64115  0.35885  0.44153
V62   V   0.64115  0.35885  0.55847
V63   V   0.64115  0.44153  0.35885
V64   V   0.64115  0.44153  0.64115
V65   V   0.64115  0.55847  0.35885
V66   V   0.64115  0.55847  0.64115
V67   V   0.64115  0.64115  0.44153
V68   V   0.64115  0.64115  0.55847
V69   V   0.64115  0.85885  0.05847
V70   V   0.64115  0.85885  0.94153
V71   V   0.64115  0.94153  0.14115
V72   V   0.64115  0.94153  0.85885
V73   V   0.85885  0.05847  0.35885
V74   V   0.85885  0.05847  0.64115
V75   V   0.85885  0.14115  0.44153
V76   V   0.85885  0.14115  0.55847
V77   V   0.85885  0.35885  0.05847
V78   V   0.85885  0.35885  0.94153
V79   V   0.85885  0.44153  0.14115
V80   V   0.85885  0.44153  0.85885
V81   V   0.85885  0.55847  0.14115
V82   V   0.85885  0.55847  0.85885
V83   V   0.85885  0.64115  0.05847
V84   V   0.85885  0.64115  0.94153
V85   V   0.85885  0.85885  0.44153
V86   V   0.85885  0.85885  0.55847
V87   V   0.85885  0.94153  0.35885
V88   V   0.85885  0.94153  0.64115
V89   V   0.94153  0.14115  0.35885
V90   V   0.94153  0.14115  0.64115
V91   V   0.94153  0.35885  0.14115
V92   V   0.94153  0.35885  0.85885
V93   V   0.94153  0.64115  0.14115
V94   V   0.94153  0.64115  0.85885
V95   V   0.94153  0.85885  0.35885
V96   V   0.94153  0.85885  0.64115
EC1    EC   0.12598  0.20866  0.29134
EC2    EC   0.12598  0.20866  0.70866
EC3    EC   0.12598  0.29134  0.20866
EC4    EC   0.12598  0.29134  0.79134
EC5    EC   0.12598  0.70866  0.20866
EC6    EC   0.12598  0.70866  0.79134
EC7    EC   0.12598  0.79134  0.29134
EC8    EC   0.12598  0.79134  0.70866
EC9    EC   0.20866  0.12598  0.29134
EC10   EC   0.20866  0.12598  0.70866
EC11   EC   0.20866  0.20866  0.37402
EC12   EC   0.20866  0.20866  0.62598
EC13   EC   0.20866  0.29134  0.12598
EC14   EC   0.20866  0.29134  0.87402
EC15   EC   0.20866  0.37402  0.20866
EC16   EC   0.20866  0.37402  0.79134
EC17   EC   0.20866  0.62598  0.20866
EC18   EC   0.20866  0.62598  0.79134
EC19   EC   0.20866  0.70866  0.12598
EC20   EC   0.20866  0.70866  0.87402
EC21   EC   0.20866  0.79134  0.37402
EC22   EC   0.20866  0.79134  0.62598
EC23   EC   0.20866  0.87402  0.29134
EC24   EC   0.20866  0.87402  0.70866
EC25   EC   0.29134  0.12598  0.20866
EC26   EC   0.29134  0.12598  0.79134
EC27   EC   0.29134  0.20866  0.12598
EC28   EC   0.29134  0.20866  0.87402
EC29   EC   0.29134  0.29134  0.37402
EC30   EC   0.29134  0.29134  0.62598
EC31   EC   0.29134  0.37402  0.29134
EC32   EC   0.29134  0.37402  0.70866
EC33   EC   0.29134  0.62598  0.29134
EC34   EC   0.29134  0.62598  0.70866
EC35   EC   0.29134  0.70866  0.37402
EC36   EC   0.29134  0.70866  0.62598
EC37   EC   0.29134  0.79134  0.12598
EC38   EC   0.29134  0.79134  0.87402
EC39   EC   0.29134  0.87402  0.20866
EC40   EC   0.29134  0.87402  0.79134
EC41   EC   0.37402  0.20866  0.20866
EC42   EC   0.37402  0.20866  0.79134
EC43   EC   0.37402  0.29134  0.29134
EC44   EC   0.37402  0.29134  0.70866
EC45   EC   0.37402  0.70866  0.29134
EC46   EC   0.37402  0.70866  0.70866
EC47   EC   0.37402  0.79134  0.20866
EC48   EC   0.37402  0.79134  0.79134
EC49   EC   0.62598  0.20866  0.20866
EC50   EC   0.62598  0.20866  0.79134
EC51   EC   0.62598  0.29134  0.29134
EC52   EC   0.62598  0.29134  0.70866
EC53   EC   0.62598  0.70866  0.29134
EC54   EC   0.62598  0.70866  0.70866
EC55   EC   0.62598  0.79134  0.20866
EC56   EC   0.62598  0.79134  0.79134
EC57   EC   0.70866  0.12598  0.20866
EC58   EC   0.70866  0.12598  0.79134
EC59   EC   0.70866  0.20866  0.12598
EC60   EC   0.70866  0.20866  0.87402
EC61   EC   0.70866  0.29134  0.37402
EC62   EC   0.70866  0.29134  0.62598
EC63   EC   0.70866  0.37402  0.29134
EC64   EC   0.70866  0.37402  0.70866
EC65   EC   0.70866  0.62598  0.29134
EC66   EC   0.70866  0.62598  0.70866
EC67   EC   0.70866  0.70866  0.37402
EC68   EC   0.70866  0.70866  0.62598
EC69   EC   0.70866  0.79134  0.12598
EC70   EC   0.70866  0.79134  0.87402
EC71   EC   0.70866  0.87402  0.20866
EC72   EC   0.70866  0.87402  0.79134
EC73   EC   0.79134  0.12598  0.29134
EC74   EC   0.79134  0.12598  0.70866
EC75   EC   0.79134  0.20866  0.37402
EC76   EC   0.79134  0.20866  0.62598
EC77   EC   0.79134  0.29134  0.12598
EC78   EC   0.79134  0.29134  0.87402
EC79   EC   0.79134  0.37402  0.20866
EC80   EC   0.79134  0.37402  0.79134
EC81   EC   0.79134  0.62598  0.20866
EC82   EC   0.79134  0.62598  0.79134
EC83   EC   0.79134  0.70866  0.12598
EC84   EC   0.79134  0.70866  0.87402
EC85   EC   0.79134  0.79134  0.37402
EC86   EC   0.79134  0.79134  0.62598
EC87   EC   0.79134  0.87402  0.29134
EC88   EC   0.79134  0.87402  0.70866
EC89   EC   0.87402  0.20866  0.29134
EC90   EC   0.87402  0.20866  0.70866
EC91   EC   0.87402  0.29134  0.20866
EC92   EC   0.87402  0.29134  0.79134
EC93   EC   0.87402  0.70866  0.20866
EC94   EC   0.87402  0.70866  0.79134
EC95   EC   0.87402  0.79134  0.29134
EC96   EC   0.87402  0.79134  0.70866
E1    E   0.00000  0.14115  0.35885
E2    E   0.00000  0.14115  0.64115
E3    E   0.00000  0.35885  0.14115
E4    E   0.00000  0.35885  0.85885
E5    E   0.00000  0.64115  0.14115
E6    E   0.00000  0.64115  0.85885
E7    E   0.00000  0.85885  0.35885
E8    E   0.00000  0.85885  0.64115
E9    E   0.09222  0.17490  0.32510
E10   E   0.09222  0.17490  0.67490
E11   E   0.09222  0.32510  0.17490
E12   E   0.09222  0.32510  0.82510
E13   E   0.09222  0.67490  0.17490
E14   E   0.09222  0.67490  0.82510
E15   E   0.09222  0.82510  0.32510
E16   E   0.09222  0.82510  0.67490
E17   E   0.09981  0.09981  0.35885
E18   E   0.09981  0.09981  0.64115
E19   E   0.09981  0.14115  0.40019
E20   E   0.09981  0.14115  0.59981
E21   E   0.09981  0.35885  0.09981
E22   E   0.09981  0.35885  0.90019
E23   E   0.09981  0.40019  0.14115
E24   E   0.09981  0.40019  0.85885
E25   E   0.09981  0.59981  0.14115
E26   E   0.09981  0.59981  0.85885
E27   E   0.09981  0.64115  0.09981
E28   E   0.09981  0.64115  0.90019
E29   E   0.09981  0.85885  0.40019
E30   E   0.09981  0.85885  0.59981
E31   E   0.09981  0.90019  0.35885
E32   E   0.09981  0.90019  0.64115
E33   E   0.12598  0.25000  0.25000
E34   E   0.12598  0.25000  0.75000
E35   E   0.12598  0.75000  0.25000
E36   E   0.12598  0.75000  0.75000
E37   E   0.14115  0.00000  0.35885
E38   E   0.14115  0.00000  0.64115
E39   E   0.14115  0.09981  0.40019
E40   E   0.14115  0.09981  0.59981
E41   E   0.14115  0.14115  0.50000
E42   E   0.14115  0.35885  0.00000
E43   E   0.14115  0.40019  0.09981
E44   E   0.14115  0.40019  0.90019
E45   E   0.14115  0.50000  0.14115
E46   E   0.14115  0.50000  0.85885
E47   E   0.14115  0.59981  0.09981
E48   E   0.14115  0.59981  0.90019
E49   E   0.14115  0.64115  0.00000
E50   E   0.14115  0.85885  0.50000
E51   E   0.14115  0.90019  0.40019
E52   E   0.14115  0.90019  0.59981
E53   E   0.16732  0.16732  0.29134
E54   E   0.16732  0.16732  0.70866
E55   E   0.16732  0.20866  0.33268
E56   E   0.16732  0.20866  0.66732
E57   E   0.16732  0.29134  0.16732
E58   E   0.16732  0.29134  0.83268
E59   E   0.16732  0.33268  0.20866
E60   E   0.16732  0.33268  0.79134
E61   E   0.16732  0.66732  0.20866
E62   E   0.16732  0.66732  0.79134
E63   E   0.16732  0.70866  0.16732
E64   E   0.16732  0.70866  0.83268
E65   E   0.16732  0.79134  0.33268
E66   E   0.16732  0.79134  0.66732
E67   E   0.16732  0.83268  0.29134
E68   E   0.16732  0.83268  0.70866
E69   E   0.17490  0.09222  0.32510
E70   E   0.17490  0.09222  0.67490
E71   E   0.17490  0.17490  0.40778
E72   E   0.17490  0.17490  0.59222
E73   E   0.17490  0.32510  0.09222
E74   E   0.17490  0.32510  0.90778
E75   E   0.17490  0.40778  0.17490
E76   E   0.17490  0.40778  0.82510
E77   E   0.17490  0.59222  0.17490
E78   E   0.17490  0.59222  0.82510
E79   E   0.17490  0.67490  0.09222
E80   E   0.17490  0.67490  0.90778
E81   E   0.17490  0.82510  0.40778
E82   E   0.17490  0.82510  0.59222
E83   E   0.17490  0.90778  0.32510
E84   E   0.17490  0.90778  0.67490
E85   E   0.20866  0.16732  0.33268
E86   E   0.20866  0.16732  0.66732
E87   E   0.20866  0.33268  0.16732
E88   E   0.20866  0.33268  0.83268
E89   E   0.20866  0.66732  0.16732
E90   E   0.20866  0.66732  0.83268
E91   E   0.20866  0.83268  0.33268
E92   E   0.20866  0.83268  0.66732
E93   E   0.25000  0.12598  0.25000
E94   E   0.25000  0.12598  0.75000
E95   E   0.25000  0.25000  0.12598
E96   E   0.25000  0.25000  0.37402
E97   E   0.25000  0.25000  0.62598
E98   E   0.25000  0.25000  0.87402
E99   E   0.25000  0.37402  0.25000
E100  E   0.25000  0.37402  0.75000
E101  E   0.25000  0.62598  0.25000
E102  E   0.25000  0.62598  0.75000
E103  E   0.25000  0.75000  0.12598
E104  E   0.25000  0.75000  0.37402
E105  E   0.25000  0.75000  0.62598
E106  E   0.25000  0.75000  0.87402
E107  E   0.25000  0.87402  0.25000
E108  E   0.25000  0.87402  0.75000
E109  E   0.29134  0.16732  0.16732
E110  E   0.29134  0.16732  0.83268
E111  E   0.29134  0.33268  0.33268
E112  E   0.29134  0.33268  0.66732
E113  E   0.29134  0.66732  0.33268
E114  E   0.29134  0.66732  0.66732
E115  E   0.29134  0.83268  0.16732
E116  E   0.29134  0.83268  0.83268
E117  E   0.32510  0.09222  0.17490
E118  E   0.32510  0.09222  0.82510
E119  E   0.32510  0.17490  0.09222
E120  E   0.32510  0.17490  0.90778
E121  E   0.32510  0.32510  0.40778
E122  E   0.32510  0.32510  0.59222
E123  E   0.32510  0.40778  0.32510
E124  E   0.32510  0.40778  0.67490
E125  E   0.32510  0.59222  0.32510
E126  E   0.32510  0.59222  0.67490
E127  E   0.32510  0.67490  0.40778
E128  E   0.32510  0.67490  0.59222
E129  E   0.32510  0.82510  0.09222
E130  E   0.32510  0.82510  0.90778
E131  E   0.32510  0.90778  0.17490
E132  E   0.32510  0.90778  0.82510
E133  E   0.33268  0.16732  0.20866
E134  E   0.33268  0.16732  0.79134
E135  E   0.33268  0.20866  0.16732
E136  E   0.33268  0.20866  0.83268
E137  E   0.33268  0.29134  0.33268
E138  E   0.33268  0.29134  0.66732
E139  E   0.33268  0.33268  0.29134
E140  E   0.33268  0.33268  0.70866
E141  E   0.33268  0.66732  0.29134
E142  E   0.33268  0.66732  0.70866
E143  E   0.33268  0.70866  0.33268
E144  E   0.33268  0.70866  0.66732
E145  E   0.33268  0.79134  0.16732
E146  E   0.33268  0.79134  0.83268
E147  E   0.33268  0.83268  0.20866
E148  E   0.33268  0.83268  0.79134
E149  E   0.35885  0.00000  0.14115
E150  E   0.35885  0.00000  0.85885
E151  E   0.35885  0.09981  0.09981
E152  E   0.35885  0.09981  0.90019
E153  E   0.35885  0.14115  0.00000
E154  E   0.35885  0.35885  0.50000
E155  E   0.35885  0.40019  0.40019
E156  E   0.35885  0.40019  0.59981
E157  E   0.35885  0.50000  0.35885
E158  E   0.35885  0.50000  0.64115
E159  E   0.35885  0.59981  0.40019
E160  E   0.35885  0.59981  0.59981
E161  E   0.35885  0.64115  0.50000
E162  E   0.35885  0.85885  0.00000
E163  E   0.35885  0.90019  0.09981
E164  E   0.35885  0.90019  0.90019
E165  E   0.37402  0.25000  0.25000
E166  E   0.37402  0.25000  0.75000
E167  E   0.37402  0.75000  0.25000
E168  E   0.37402  0.75000  0.75000
E169  E   0.40019  0.09981  0.14115
E170  E   0.40019  0.09981  0.85885
E171  E   0.40019  0.14115  0.09981
E172  E   0.40019  0.14115  0.90019
E173  E   0.40019  0.35885  0.40019
E174  E   0.40019  0.35885  0.59981
E175  E   0.40019  0.40019  0.35885
E176  E   0.40019  0.40019  0.64115
E177  E   0.40019  0.59981  0.35885
E178  E   0.40019  0.59981  0.64115
E179  E   0.40019  0.64115  0.40019
E180  E   0.40019  0.64115  0.59981
E181  E   0.40019  0.85885  0.09981
E182  E   0.40019  0.85885  0.90019
E183  E   0.40019  0.90019  0.14115
E184  E   0.40019  0.90019  0.85885
E185  E   0.40778  0.17490  0.17490
E186  E   0.40778  0.17490  0.82510
E187  E   0.40778  0.32510  0.32510
E188  E   0.40778  0.32510  0.67490
E189  E   0.40778  0.67490  0.32510
E190  E   0.40778  0.67490  0.67490
E191  E   0.40778  0.82510  0.17490
E192  E   0.40778  0.82510  0.82510
E193  E   0.50000  0.14115  0.14115
E194  E   0.50000  0.14115  0.85885
E195  E   0.50000  0.35885  0.35885
E196  E   0.50000  0.35885  0.64115
E197  E   0.50000  0.64115  0.35885
E198  E   0.50000  0.64115  0.64115
E199  E   0.50000  0.85885  0.14115
E200  E   0.50000  0.85885  0.85885
E201  E   0.59222  0.17490  0.17490
E202  E   0.59222  0.17490  0.82510
E203  E   0.59222  0.32510  0.32510
E204  E   0.59222  0.32510  0.67490
E205  E   0.59222  0.67490  0.32510
E206  E   0.59222  0.67490  0.67490
E207  E   0.59222  0.82510  0.17490
E208  E   0.59222  0.82510  0.82510
E209  E   0.59981  0.09981  0.14115
E210  E   0.59981  0.09981  0.85885
E211  E   0.59981  0.14115  0.09981
E212  E   0.59981  0.14115  0.90019
E213  E   0.59981  0.35885  0.40019
E214  E   0.59981  0.35885  0.59981
E215  E   0.59981  0.40019  0.35885
E216  E   0.59981  0.40019  0.64115
E217  E   0.59981  0.59981  0.35885
E218  E   0.59981  0.59981  0.64115
E219  E   0.59981  0.64115  0.40019
E220  E   0.59981  0.64115  0.59981
E221  E   0.59981  0.85885  0.09981
E222  E   0.59981  0.85885  0.90019
E223  E   0.59981  0.90019  0.14115
E224  E   0.59981  0.90019  0.85885
E225  E   0.62598  0.25000  0.25000
E226  E   0.62598  0.25000  0.75000
E227  E   0.62598  0.75000  0.25000
E228  E   0.62598  0.75000  0.75000
E229  E   0.64115  0.00000  0.14115
E230  E   0.64115  0.00000  0.85885
E231  E   0.64115  0.09981  0.09981
E232  E   0.64115  0.09981  0.90019
E233  E   0.64115  0.14115  0.00000
E234  E   0.64115  0.35885  0.50000
E235  E   0.64115  0.40019  0.40019
E236  E   0.64115  0.40019  0.59981
E237  E   0.64115  0.50000  0.35885
E238  E   0.64115  0.50000  0.64115
E239  E   0.64115  0.59981  0.40019
E240  E   0.64115  0.59981  0.59981
E241  E   0.64115  0.64115  0.50000
E242  E   0.64115  0.85885  0.00000
E243  E   0.64115  0.90019  0.09981
E244  E   0.64115  0.90019  0.90019
E245  E   0.66732  0.16732  0.20866
E246  E   0.66732  0.16732  0.79134
E247  E   0.66732  0.20866  0.16732
E248  E   0.66732  0.20866  0.83268
E249  E   0.66732  0.29134  0.33268
E250  E   0.66732  0.29134  0.66732
E251  E   0.66732  0.33268  0.29134
E252  E   0.66732  0.33268  0.70866
E253  E   0.66732  0.66732  0.29134
E254  E   0.66732  0.66732  0.70866
E255  E   0.66732  0.70866  0.33268
E256  E   0.66732  0.70866  0.66732
E257  E   0.66732  0.79134  0.16732
E258  E   0.66732  0.79134  0.83268
E259  E   0.66732  0.83268  0.20866
E260  E   0.66732  0.83268  0.79134
E261  E   0.67490  0.09222  0.17490
E262  E   0.67490  0.09222  0.82510
E263  E   0.67490  0.17490  0.09222
E264  E   0.67490  0.17490  0.90778
E265  E   0.67490  0.32510  0.40778
E266  E   0.67490  0.32510  0.59222
E267  E   0.67490  0.40778  0.32510
E268  E   0.67490  0.40778  0.67490
E269  E   0.67490  0.59222  0.32510
E270  E   0.67490  0.59222  0.67490
E271  E   0.67490  0.67490  0.40778
E272  E   0.67490  0.67490  0.59222
E273  E   0.67490  0.82510  0.09222
E274  E   0.67490  0.82510  0.90778
E275  E   0.67490  0.90778  0.17490
E276  E   0.67490  0.90778  0.82510
E277  E   0.70866  0.16732  0.16732
E278  E   0.70866  0.16732  0.83268
E279  E   0.70866  0.33268  0.33268
E280  E   0.70866  0.33268  0.66732
E281  E   0.70866  0.66732  0.33268
E282  E   0.70866  0.66732  0.66732
E283  E   0.70866  0.83268  0.16732
E284  E   0.70866  0.83268  0.83268
E285  E   0.75000  0.12598  0.25000
E286  E   0.75000  0.12598  0.75000
E287  E   0.75000  0.25000  0.12598
E288  E   0.75000  0.25000  0.37402
E289  E   0.75000  0.25000  0.62598
E290  E   0.75000  0.25000  0.87402
E291  E   0.75000  0.37402  0.25000
E292  E   0.75000  0.37402  0.75000
E293  E   0.75000  0.62598  0.25000
E294  E   0.75000  0.62598  0.75000
E295  E   0.75000  0.75000  0.12598
E296  E   0.75000  0.75000  0.37402
E297  E   0.75000  0.75000  0.62598
E298  E   0.75000  0.75000  0.87402
E299  E   0.75000  0.87402  0.25000
E300  E   0.75000  0.87402  0.75000
E301  E   0.79134  0.16732  0.33268
E302  E   0.79134  0.16732  0.66732
E303  E   0.79134  0.33268  0.16732
E304  E   0.79134  0.33268  0.83268
E305  E   0.79134  0.66732  0.16732
E306  E   0.79134  0.66732  0.83268
E307  E   0.79134  0.83268  0.33268
E308  E   0.79134  0.83268  0.66732
E309  E   0.82510  0.09222  0.32510
E310  E   0.82510  0.09222  0.67490
E311  E   0.82510  0.17490  0.40778
E312  E   0.82510  0.17490  0.59222
E313  E   0.82510  0.32510  0.09222
E314  E   0.82510  0.32510  0.90778
E315  E   0.82510  0.40778  0.17490
E316  E   0.82510  0.40778  0.82510
E317  E   0.82510  0.59222  0.17490
E318  E   0.82510  0.59222  0.82510
E319  E   0.82510  0.67490  0.09222
E320  E   0.82510  0.67490  0.90778
E321  E   0.82510  0.82510  0.40778
E322  E   0.82510  0.82510  0.59222
E323  E   0.82510  0.90778  0.32510
E324  E   0.82510  0.90778  0.67490
E325  E   0.83268  0.16732  0.29134
E326  E   0.83268  0.16732  0.70866
E327  E   0.83268  0.20866  0.33268
E328  E   0.83268  0.20866  0.66732
E329  E   0.83268  0.29134  0.16732
E330  E   0.83268  0.29134  0.83268
E331  E   0.83268  0.33268  0.20866
E332  E   0.83268  0.33268  0.79134
E333  E   0.83268  0.66732  0.20866
E334  E   0.83268  0.66732  0.79134
E335  E   0.83268  0.70866  0.16732
E336  E   0.83268  0.70866  0.83268
E337  E   0.83268  0.79134  0.33268
E338  E   0.83268  0.79134  0.66732
E339  E   0.83268  0.83268  0.29134
E340  E   0.83268  0.83268  0.70866
E341  E   0.85885  0.00000  0.35885
E342  E   0.85885  0.00000  0.64115
E343  E   0.85885  0.09981  0.40019
E344  E   0.85885  0.09981  0.59981
E345  E   0.85885  0.14115  0.50000
E346  E   0.85885  0.35885  0.00000
E347  E   0.85885  0.40019  0.09981
E348  E   0.85885  0.40019  0.90019
E349  E   0.85885  0.50000  0.14115
E350  E   0.85885  0.50000  0.85885
E351  E   0.85885  0.59981  0.09981
E352  E   0.85885  0.59981  0.90019
E353  E   0.85885  0.64115  0.00000
E354  E   0.85885  0.85885  0.50000
E355  E   0.85885  0.90019  0.40019
E356  E   0.85885  0.90019  0.59981
E357  E   0.87402  0.25000  0.25000
E358  E   0.87402  0.25000  0.75000
E359  E   0.87402  0.75000  0.25000
E360  E   0.87402  0.75000  0.75000
E361  E   0.90019  0.09981  0.35885
E362  E   0.90019  0.09981  0.64115
E363  E   0.90019  0.14115  0.40019
E364  E   0.90019  0.14115  0.59981
E365  E   0.90019  0.35885  0.09981
E366  E   0.90019  0.35885  0.90019
E367  E   0.90019  0.40019  0.14115
E368  E   0.90019  0.40019  0.85885
E369  E   0.90019  0.59981  0.14115
E370  E   0.90019  0.59981  0.85885
E371  E   0.90019  0.64115  0.09981
E372  E   0.90019  0.64115  0.90019
E373  E   0.90019  0.85885  0.40019
E374  E   0.90019  0.85885  0.59981
E375  E   0.90019  0.90019  0.35885
E376  E   0.90019  0.90019  0.64115
E377  E   0.90778  0.17490  0.32510
E378  E   0.90778  0.17490  0.67490
E379  E   0.90778  0.32510  0.17490
E380  E   0.90778  0.32510  0.82510
E381  E   0.90778  0.67490  0.17490
E382  E   0.90778  0.67490  0.82510
E383  E   0.90778  0.82510  0.32510
E384  E   0.90778  0.82510  0.67490
loop_
