data_baw_Im-3m  hall_number: 529, V_con: 4, EC_con: 4
_audit_creation_date              2025-03-05
_audit_creation_method            'MOFbuilder_1.0'
_symmetry_space_group_name_H-M    'P1'
_symmetry_Int_Tables_number       1
_symmetry_cell_setting            triclinic
loop_
_symmetry_equiv_pos_as_xyz
  x,y,z
_cell_length_a                    71.3784
_cell_length_b                    71.3784
_cell_length_c                    71.3784
_cell_angle_alpha                 90.0
_cell_angle_beta                  90.0
_cell_angle_gamma                 90.0
loop_
_atom_site_label
_atom_site_type_symbol
_atom_site_fract_x
_atom_site_fract_y
_atom_site_fract_z
V1    V   0.15094  0.25000  0.34906
V2    V   0.15094  0.25000  0.65094
V3    V   0.15094  0.34906  0.25000
V4    V   0.15094  0.34906  0.75000
V5    V   0.15094  0.65094  0.25000
V6    V   0.15094  0.65094  0.75000
V7    V   0.15094  0.75000  0.34906
V8    V   0.15094  0.75000  0.65094
V9    V   0.15094  0.25000  0.34906
V10   V   0.15094  0.25000  0.65094
V11   V   0.15094  0.34906  0.25000
V12   V   0.15094  0.34906  0.75000
V13   V   0.15094  0.65094  0.25000
V14   V   0.15094  0.65094  0.75000
V15   V   0.15094  0.75000  0.34906
V16   V   0.15094  0.75000  0.65094
V17   V   0.25000  0.15094  0.34906
V18   V   0.25000  0.15094  0.65094
V19   V   0.25000  0.15094  0.34906
V20   V   0.25000  0.15094  0.65094
V21   V   0.25000  0.34906  0.15094
V22   V   0.25000  0.34906  0.84906
V23   V   0.25000  0.34906  0.15094
V24   V   0.25000  0.34906  0.84906
V25   V   0.25000  0.65094  0.15094
V26   V   0.25000  0.65094  0.84906
V27   V   0.25000  0.65094  0.15094
V28   V   0.25000  0.65094  0.84906
V29   V   0.25000  0.84906  0.34906
V30   V   0.25000  0.84906  0.65094
V31   V   0.25000  0.84906  0.34906
V32   V   0.25000  0.84906  0.65094
V33   V   0.34906  0.15094  0.25000
V34   V   0.34906  0.15094  0.75000
V35   V   0.34906  0.25000  0.15094
V36   V   0.34906  0.25000  0.84906
V37   V   0.34906  0.75000  0.15094
V38   V   0.34906  0.75000  0.84906
V39   V   0.34906  0.84906  0.25000
V40   V   0.34906  0.84906  0.75000
V41   V   0.34906  0.15094  0.25000
V42   V   0.34906  0.15094  0.75000
V43   V   0.34906  0.25000  0.15094
V44   V   0.34906  0.25000  0.84906
V45   V   0.34906  0.75000  0.15094
V46   V   0.34906  0.75000  0.84906
V47   V   0.34906  0.84906  0.25000
V48   V   0.34906  0.84906  0.75000
V49   V   0.65094  0.15094  0.25000
V50   V   0.65094  0.15094  0.75000
V51   V   0.65094  0.25000  0.15094
V52   V   0.65094  0.25000  0.84906
V53   V   0.65094  0.75000  0.15094
V54   V   0.65094  0.75000  0.84906
V55   V   0.65094  0.84906  0.25000
V56   V   0.65094  0.84906  0.75000
V57   V   0.65094  0.15094  0.25000
V58   V   0.65094  0.15094  0.75000
V59   V   0.65094  0.25000  0.15094
V60   V   0.65094  0.25000  0.84906
V61   V   0.65094  0.75000  0.15094
V62   V   0.65094  0.75000  0.84906
V63   V   0.65094  0.84906  0.25000
V64   V   0.65094  0.84906  0.75000
V65   V   0.75000  0.15094  0.34906
V66   V   0.75000  0.15094  0.65094
V67   V   0.75000  0.15094  0.34906
V68   V   0.75000  0.15094  0.65094
V69   V   0.75000  0.34906  0.15094
V70   V   0.75000  0.34906  0.84906
V71   V   0.75000  0.34906  0.15094
V72   V   0.75000  0.34906  0.84906
V73   V   0.75000  0.65094  0.15094
V74   V   0.75000  0.65094  0.84906
V75   V   0.75000  0.65094  0.15094
V76   V   0.75000  0.65094  0.84906
V77   V   0.75000  0.84906  0.34906
V78   V   0.75000  0.84906  0.65094
V79   V   0.75000  0.84906  0.34906
V80   V   0.75000  0.84906  0.65094
V81   V   0.84906  0.25000  0.34906
V82   V   0.84906  0.25000  0.65094
V83   V   0.84906  0.34906  0.25000
V84   V   0.84906  0.34906  0.75000
V85   V   0.84906  0.65094  0.25000
V86   V   0.84906  0.65094  0.75000
V87   V   0.84906  0.75000  0.34906
V88   V   0.84906  0.75000  0.65094
V89   V   0.84906  0.25000  0.34906
V90   V   0.84906  0.25000  0.65094
V91   V   0.84906  0.34906  0.25000
V92   V   0.84906  0.34906  0.75000
V93   V   0.84906  0.65094  0.25000
V94   V   0.84906  0.65094  0.75000
V95   V   0.84906  0.75000  0.34906
V96   V   0.84906  0.75000  0.65094
EC1    EC   0.07005  0.16911  0.26818
EC2    EC   0.07005  0.16911  0.73182
EC3    EC   0.07005  0.26818  0.16911
EC4    EC   0.07005  0.26818  0.83089
EC5    EC   0.07005  0.73182  0.16911
EC6    EC   0.07005  0.73182  0.83089
EC7    EC   0.07005  0.83089  0.26818
EC8    EC   0.07005  0.83089  0.73182
EC9    EC   0.16911  0.07005  0.26818
EC10   EC   0.16911  0.07005  0.73182
EC11   EC   0.16911  0.26818  0.07005
EC12   EC   0.16911  0.26818  0.92995
EC13   EC   0.16911  0.73182  0.07005
EC14   EC   0.16911  0.73182  0.92995
EC15   EC   0.16911  0.92995  0.26818
EC16   EC   0.16911  0.92995  0.73182
EC17   EC   0.23182  0.33089  0.42995
EC18   EC   0.23182  0.33089  0.57005
EC19   EC   0.23182  0.42995  0.33089
EC20   EC   0.23182  0.42995  0.66911
EC21   EC   0.23182  0.57005  0.33089
EC22   EC   0.23182  0.57005  0.66911
EC23   EC   0.23182  0.66911  0.42995
EC24   EC   0.23182  0.66911  0.57005
EC25   EC   0.26818  0.07005  0.16911
EC26   EC   0.26818  0.07005  0.83089
EC27   EC   0.26818  0.16911  0.07005
EC28   EC   0.26818  0.16911  0.92995
EC29   EC   0.26818  0.83089  0.07005
EC30   EC   0.26818  0.83089  0.92995
EC31   EC   0.26818  0.92995  0.16911
EC32   EC   0.26818  0.92995  0.83089
EC33   EC   0.33089  0.23182  0.42995
EC34   EC   0.33089  0.23182  0.57005
EC35   EC   0.33089  0.42995  0.23182
EC36   EC   0.33089  0.42995  0.76818
EC37   EC   0.33089  0.57005  0.23182
EC38   EC   0.33089  0.57005  0.76818
EC39   EC   0.33089  0.76818  0.42995
EC40   EC   0.33089  0.76818  0.57005
EC41   EC   0.42995  0.23182  0.33089
EC42   EC   0.42995  0.23182  0.66911
EC43   EC   0.42995  0.33089  0.23182
EC44   EC   0.42995  0.33089  0.76818
EC45   EC   0.42995  0.66911  0.23182
EC46   EC   0.42995  0.66911  0.76818
EC47   EC   0.42995  0.76818  0.33089
EC48   EC   0.42995  0.76818  0.66911
EC49   EC   0.57005  0.23182  0.33089
EC50   EC   0.57005  0.23182  0.66911
EC51   EC   0.57005  0.33089  0.23182
EC52   EC   0.57005  0.33089  0.76818
EC53   EC   0.57005  0.66911  0.23182
EC54   EC   0.57005  0.66911  0.76818
EC55   EC   0.57005  0.76818  0.33089
EC56   EC   0.57005  0.76818  0.66911
EC57   EC   0.66911  0.23182  0.42995
EC58   EC   0.66911  0.23182  0.57005
EC59   EC   0.66911  0.42995  0.23182
EC60   EC   0.66911  0.42995  0.76818
EC61   EC   0.66911  0.57005  0.23182
EC62   EC   0.66911  0.57005  0.76818
EC63   EC   0.66911  0.76818  0.42995
EC64   EC   0.66911  0.76818  0.57005
EC65   EC   0.73182  0.07005  0.16911
EC66   EC   0.73182  0.07005  0.83089
EC67   EC   0.73182  0.16911  0.07005
EC68   EC   0.73182  0.16911  0.92995
EC69   EC   0.73182  0.83089  0.07005
EC70   EC   0.73182  0.83089  0.92995
EC71   EC   0.73182  0.92995  0.16911
EC72   EC   0.73182  0.92995  0.83089
EC73   EC   0.76818  0.33089  0.42995
EC74   EC   0.76818  0.33089  0.57005
EC75   EC   0.76818  0.42995  0.33089
EC76   EC   0.76818  0.42995  0.66911
EC77   EC   0.76818  0.57005  0.33089
EC78   EC   0.76818  0.57005  0.66911
EC79   EC   0.76818  0.66911  0.42995
EC80   EC   0.76818  0.66911  0.57005
EC81   EC   0.83089  0.07005  0.26818
EC82   EC   0.83089  0.07005  0.73182
EC83   EC   0.83089  0.26818  0.07005
EC84   EC   0.83089  0.26818  0.92995
EC85   EC   0.83089  0.73182  0.07005
EC86   EC   0.83089  0.73182  0.92995
EC87   EC   0.83089  0.92995  0.26818
EC88   EC   0.83089  0.92995  0.73182
EC89   EC   0.92995  0.16911  0.26818
EC90   EC   0.92995  0.16911  0.73182
EC91   EC   0.92995  0.26818  0.16911
EC92   EC   0.92995  0.26818  0.83089
EC93   EC   0.92995  0.73182  0.16911
EC94   EC   0.92995  0.73182  0.83089
EC95   EC   0.92995  0.83089  0.26818
EC96   EC   0.92995  0.83089  0.73182
E1    E   0.00000  0.16911  0.26818
E2    E   0.00000  0.16911  0.73182
E3    E   0.00000  0.26818  0.16911
E4    E   0.00000  0.26818  0.83089
E5    E   0.00000  0.73182  0.16911
E6    E   0.00000  0.73182  0.83089
E7    E   0.00000  0.83089  0.26818
E8    E   0.00000  0.83089  0.73182
E9    E   0.07005  0.21865  0.21865
E10   E   0.07005  0.21865  0.78135
E11   E   0.07005  0.78135  0.21865
E12   E   0.07005  0.78135  0.78135
E13   E   0.11049  0.20956  0.30862
E14   E   0.11049  0.20956  0.69138
E15   E   0.11049  0.30862  0.20956
E16   E   0.11049  0.30862  0.79044
E17   E   0.11049  0.69138  0.20956
E18   E   0.11049  0.69138  0.79044
E19   E   0.11049  0.79044  0.30862
E20   E   0.11049  0.79044  0.69138
E21   E   0.11958  0.11958  0.26818
E22   E   0.11958  0.11958  0.73182
E23   E   0.11958  0.26818  0.11958
E24   E   0.11958  0.26818  0.88042
E25   E   0.11958  0.73182  0.11958
E26   E   0.11958  0.73182  0.88042
E27   E   0.11958  0.88042  0.26818
E28   E   0.11958  0.88042  0.73182
E29   E   0.15094  0.29953  0.29953
E30   E   0.15094  0.29953  0.70047
E31   E   0.15094  0.70047  0.29953
E32   E   0.15094  0.70047  0.70047
E33   E   0.16911  0.00000  0.26818
E34   E   0.16911  0.00000  0.73182
E35   E   0.16911  0.26818  0.00000
E36   E   0.16911  0.73182  0.00000
E37   E   0.19138  0.29044  0.38951
E38   E   0.19138  0.29044  0.61049
E39   E   0.19138  0.38951  0.29044
E40   E   0.19138  0.38951  0.70956
E41   E   0.19138  0.61049  0.29044
E42   E   0.19138  0.61049  0.70956
E43   E   0.19138  0.70956  0.38951
E44   E   0.19138  0.70956  0.61049
E45   E   0.20047  0.20047  0.34906
E46   E   0.20047  0.20047  0.65094
E47   E   0.20047  0.34906  0.20047
E48   E   0.20047  0.34906  0.79953
E49   E   0.20047  0.65094  0.20047
E50   E   0.20047  0.65094  0.79953
E51   E   0.20047  0.79953  0.34906
E52   E   0.20047  0.79953  0.65094
E53   E   0.20956  0.11049  0.30862
E54   E   0.20956  0.11049  0.69138
E55   E   0.20956  0.30862  0.11049
E56   E   0.20956  0.30862  0.88951
E57   E   0.20956  0.69138  0.11049
E58   E   0.20956  0.69138  0.88951
E59   E   0.20956  0.88951  0.30862
E60   E   0.20956  0.88951  0.69138
E61   E   0.21865  0.07005  0.21865
E62   E   0.21865  0.07005  0.78135
E63   E   0.21865  0.21865  0.07005
E64   E   0.21865  0.21865  0.92995
E65   E   0.21865  0.78135  0.07005
E66   E   0.21865  0.78135  0.92995
E67   E   0.21865  0.92995  0.21865
E68   E   0.21865  0.92995  0.78135
E69   E   0.23182  0.33089  0.50000
E70   E   0.23182  0.38042  0.38042
E71   E   0.23182  0.38042  0.61958
E72   E   0.23182  0.50000  0.33089
E73   E   0.23182  0.50000  0.66911
E74   E   0.23182  0.61958  0.38042
E75   E   0.23182  0.61958  0.61958
E76   E   0.23182  0.66911  0.50000
E77   E   0.26818  0.00000  0.16911
E78   E   0.26818  0.00000  0.83089
E79   E   0.26818  0.11958  0.11958
E80   E   0.26818  0.11958  0.88042
E81   E   0.26818  0.16911  0.00000
E82   E   0.26818  0.83089  0.00000
E83   E   0.26818  0.88042  0.11958
E84   E   0.26818  0.88042  0.88042
E85   E   0.28135  0.28135  0.42995
E86   E   0.28135  0.28135  0.57005
E87   E   0.28135  0.42995  0.28135
E88   E   0.28135  0.42995  0.71865
E89   E   0.28135  0.57005  0.28135
E90   E   0.28135  0.57005  0.71865
E91   E   0.28135  0.71865  0.42995
E92   E   0.28135  0.71865  0.57005
E93   E   0.29044  0.19138  0.38951
E94   E   0.29044  0.19138  0.61049
E95   E   0.29044  0.38951  0.19138
E96   E   0.29044  0.38951  0.80862
E97   E   0.29044  0.61049  0.19138
E98   E   0.29044  0.61049  0.80862
E99   E   0.29044  0.80862  0.38951
E100  E   0.29044  0.80862  0.61049
E101  E   0.29953  0.15094  0.29953
E102  E   0.29953  0.15094  0.70047
E103  E   0.29953  0.29953  0.15094
E104  E   0.29953  0.29953  0.84906
E105  E   0.29953  0.70047  0.15094
E106  E   0.29953  0.70047  0.84906
E107  E   0.29953  0.84906  0.29953
E108  E   0.29953  0.84906  0.70047
E109  E   0.30862  0.11049  0.20956
E110  E   0.30862  0.11049  0.79044
E111  E   0.30862  0.20956  0.11049
E112  E   0.30862  0.20956  0.88951
E113  E   0.30862  0.79044  0.11049
E114  E   0.30862  0.79044  0.88951
E115  E   0.30862  0.88951  0.20956
E116  E   0.30862  0.88951  0.79044
E117  E   0.33089  0.23182  0.50000
E118  E   0.33089  0.50000  0.23182
E119  E   0.33089  0.50000  0.76818
E120  E   0.33089  0.76818  0.50000
E121  E   0.34906  0.20047  0.20047
E122  E   0.34906  0.20047  0.79953
E123  E   0.34906  0.79953  0.20047
E124  E   0.34906  0.79953  0.79953
E125  E   0.38042  0.23182  0.38042
E126  E   0.38042  0.23182  0.61958
E127  E   0.38042  0.38042  0.23182
E128  E   0.38042  0.38042  0.76818
E129  E   0.38042  0.61958  0.23182
E130  E   0.38042  0.61958  0.76818
E131  E   0.38042  0.76818  0.38042
E132  E   0.38042  0.76818  0.61958
E133  E   0.38951  0.19138  0.29044
E134  E   0.38951  0.19138  0.70956
E135  E   0.38951  0.29044  0.19138
E136  E   0.38951  0.29044  0.80862
E137  E   0.38951  0.70956  0.19138
E138  E   0.38951  0.70956  0.80862
E139  E   0.38951  0.80862  0.29044
E140  E   0.38951  0.80862  0.70956
E141  E   0.42995  0.28135  0.28135
E142  E   0.42995  0.28135  0.71865
E143  E   0.42995  0.71865  0.28135
E144  E   0.42995  0.71865  0.71865
E145  E   0.50000  0.23182  0.33089
E146  E   0.50000  0.23182  0.66911
E147  E   0.50000  0.33089  0.23182
E148  E   0.50000  0.33089  0.76818
E149  E   0.50000  0.66911  0.23182
E150  E   0.50000  0.66911  0.76818
E151  E   0.50000  0.76818  0.33089
E152  E   0.50000  0.76818  0.66911
E153  E   0.57005  0.28135  0.28135
E154  E   0.57005  0.28135  0.71865
E155  E   0.57005  0.71865  0.28135
E156  E   0.57005  0.71865  0.71865
E157  E   0.61049  0.19138  0.29044
E158  E   0.61049  0.19138  0.70956
E159  E   0.61049  0.29044  0.19138
E160  E   0.61049  0.29044  0.80862
E161  E   0.61049  0.70956  0.19138
E162  E   0.61049  0.70956  0.80862
E163  E   0.61049  0.80862  0.29044
E164  E   0.61049  0.80862  0.70956
E165  E   0.61958  0.23182  0.38042
E166  E   0.61958  0.23182  0.61958
E167  E   0.61958  0.38042  0.23182
E168  E   0.61958  0.38042  0.76818
E169  E   0.61958  0.61958  0.23182
E170  E   0.61958  0.61958  0.76818
E171  E   0.61958  0.76818  0.38042
E172  E   0.61958  0.76818  0.61958
E173  E   0.65094  0.20047  0.20047
E174  E   0.65094  0.20047  0.79953
E175  E   0.65094  0.79953  0.20047
E176  E   0.65094  0.79953  0.79953
E177  E   0.66911  0.23182  0.50000
E178  E   0.66911  0.50000  0.23182
E179  E   0.66911  0.50000  0.76818
E180  E   0.66911  0.76818  0.50000
E181  E   0.69138  0.11049  0.20956
E182  E   0.69138  0.11049  0.79044
E183  E   0.69138  0.20956  0.11049
E184  E   0.69138  0.20956  0.88951
E185  E   0.69138  0.79044  0.11049
E186  E   0.69138  0.79044  0.88951
E187  E   0.69138  0.88951  0.20956
E188  E   0.69138  0.88951  0.79044
E189  E   0.70047  0.15094  0.29953
E190  E   0.70047  0.15094  0.70047
E191  E   0.70047  0.29953  0.15094
E192  E   0.70047  0.29953  0.84906
E193  E   0.70047  0.70047  0.15094
E194  E   0.70047  0.70047  0.84906
E195  E   0.70047  0.84906  0.29953
E196  E   0.70047  0.84906  0.70047
E197  E   0.70956  0.19138  0.38951
E198  E   0.70956  0.19138  0.61049
E199  E   0.70956  0.38951  0.19138
E200  E   0.70956  0.38951  0.80862
E201  E   0.70956  0.61049  0.19138
E202  E   0.70956  0.61049  0.80862
E203  E   0.70956  0.80862  0.38951
E204  E   0.70956  0.80862  0.61049
E205  E   0.71865  0.28135  0.42995
E206  E   0.71865  0.28135  0.57005
E207  E   0.71865  0.42995  0.28135
E208  E   0.71865  0.42995  0.71865
E209  E   0.71865  0.57005  0.28135
E210  E   0.71865  0.57005  0.71865
E211  E   0.71865  0.71865  0.42995
E212  E   0.71865  0.71865  0.57005
E213  E   0.73182  0.00000  0.16911
E214  E   0.73182  0.00000  0.83089
E215  E   0.73182  0.11958  0.11958
E216  E   0.73182  0.11958  0.88042
E217  E   0.73182  0.16911  0.00000
E218  E   0.73182  0.83089  0.00000
E219  E   0.73182  0.88042  0.11958
E220  E   0.73182  0.88042  0.88042
E221  E   0.76818  0.33089  0.50000
E222  E   0.76818  0.38042  0.38042
E223  E   0.76818  0.38042  0.61958
E224  E   0.76818  0.50000  0.33089
E225  E   0.76818  0.50000  0.66911
E226  E   0.76818  0.61958  0.38042
E227  E   0.76818  0.61958  0.61958
E228  E   0.76818  0.66911  0.50000
E229  E   0.78135  0.07005  0.21865
E230  E   0.78135  0.07005  0.78135
E231  E   0.78135  0.21865  0.07005
E232  E   0.78135  0.21865  0.92995
E233  E   0.78135  0.78135  0.07005
E234  E   0.78135  0.78135  0.92995
E235  E   0.78135  0.92995  0.21865
E236  E   0.78135  0.92995  0.78135
E237  E   0.79044  0.11049  0.30862
E238  E   0.79044  0.11049  0.69138
E239  E   0.79044  0.30862  0.11049
E240  E   0.79044  0.30862  0.88951
E241  E   0.79044  0.69138  0.11049
E242  E   0.79044  0.69138  0.88951
E243  E   0.79044  0.88951  0.30862
E244  E   0.79044  0.88951  0.69138
E245  E   0.79953  0.20047  0.34906
E246  E   0.79953  0.20047  0.65094
E247  E   0.79953  0.34906  0.20047
E248  E   0.79953  0.34906  0.79953
E249  E   0.79953  0.65094  0.20047
E250  E   0.79953  0.65094  0.79953
E251  E   0.79953  0.79953  0.34906
E252  E   0.79953  0.79953  0.65094
E253  E   0.80862  0.29044  0.38951
E254  E   0.80862  0.29044  0.61049
E255  E   0.80862  0.38951  0.29044
E256  E   0.80862  0.38951  0.70956
E257  E   0.80862  0.61049  0.29044
E258  E   0.80862  0.61049  0.70956
E259  E   0.80862  0.70956  0.38951
E260  E   0.80862  0.70956  0.61049
E261  E   0.83089  0.00000  0.26818
E262  E   0.83089  0.00000  0.73182
E263  E   0.83089  0.26818  0.00000
E264  E   0.83089  0.73182  0.00000
E265  E   0.84906  0.29953  0.29953
E266  E   0.84906  0.29953  0.70047
E267  E   0.84906  0.70047  0.29953
E268  E   0.84906  0.70047  0.70047
E269  E   0.88042  0.11958  0.26818
E270  E   0.88042  0.11958  0.73182
E271  E   0.88042  0.26818  0.11958
E272  E   0.88042  0.26818  0.88042
E273  E   0.88042  0.73182  0.11958
E274  E   0.88042  0.73182  0.88042
E275  E   0.88042  0.88042  0.26818
E276  E   0.88042  0.88042  0.73182
E277  E   0.88951  0.20956  0.30862
E278  E   0.88951  0.20956  0.69138
E279  E   0.88951  0.30862  0.20956
E280  E   0.88951  0.30862  0.79044
E281  E   0.88951  0.69138  0.20956
E282  E   0.88951  0.69138  0.79044
E283  E   0.88951  0.79044  0.30862
E284  E   0.88951  0.79044  0.69138
E285  E   0.92995  0.21865  0.21865
E286  E   0.92995  0.21865  0.78135
E287  E   0.92995  0.78135  0.21865
E288  E   0.92995  0.78135  0.78135
loop_
