data_bbc_P4/mmm  hall_number: 400, V_con: 4, EC_con: 4
_audit_creation_date              2025-03-05
_audit_creation_method            'MOFbuilder_1.0'
_symmetry_space_group_name_H-M    'P1'
_symmetry_Int_Tables_number       1
_symmetry_cell_setting            triclinic
loop_
_symmetry_equiv_pos_as_xyz
  x,y,z
_cell_length_a                    30.400999999999996
_cell_length_b                    30.400999999999996
_cell_length_c                    23.551299999999998
_cell_angle_alpha                 90.0
_cell_angle_beta                  90.0
_cell_angle_gamma                 90.0
loop_
_atom_site_label
_atom_site_type_symbol
_atom_site_fract_x
_atom_site_fract_y
_atom_site_fract_z
V1    V   0.33553  0.33553  0.00000
V2    V   0.33553  0.66447  0.00000
V3    V   0.66447  0.33553  0.00000
V4    V   0.66447  0.66447  0.00000
EC1    EC   0.16447  0.16447  0.28770
EC2    EC   0.16447  0.16447  0.71230
EC3    EC   0.16447  0.83553  0.28770
EC4    EC   0.16447  0.83553  0.71230
EC5    EC   0.83553  0.16447  0.28770
EC6    EC   0.83553  0.16447  0.71230
EC7    EC   0.83553  0.83553  0.28770
EC8    EC   0.83553  0.83553  0.71230
E1    E   0.00000  0.16447  0.28770
E2    E   0.00000  0.16447  0.71230
E3    E   0.00000  0.83553  0.28770
E4    E   0.00000  0.83553  0.71230
E5    E   0.16447  0.00000  0.28770
E6    E   0.16447  0.00000  0.71230
E7    E   0.16447  0.16447  0.50000
E8    E   0.16447  0.83553  0.50000
E9    E   0.25000  0.25000  0.14385
E10   E   0.25000  0.25000  0.85615
E11   E   0.25000  0.75000  0.14385
E12   E   0.25000  0.75000  0.85615
E13   E   0.33553  0.50000  0.00000
E14   E   0.50000  0.33553  0.00000
E15   E   0.50000  0.66447  0.00000
E16   E   0.66447  0.50000  0.00000
E17   E   0.75000  0.25000  0.14385
E18   E   0.75000  0.25000  0.85615
E19   E   0.75000  0.75000  0.14385
E20   E   0.75000  0.75000  0.85615
E21   E   0.83553  0.00000  0.28770
E22   E   0.83553  0.00000  0.71230
E23   E   0.83553  0.16447  0.50000
E24   E   0.83553  0.83553  0.50000
loop_
