data_bbd_P4/mmm  hall_number: 400, V_con: 4, EC_con: 4
_audit_creation_date              2025-03-05
_audit_creation_method            'MOFbuilder_1.0'
_symmetry_space_group_name_H-M    'P1'
_symmetry_Int_Tables_number       1
_symmetry_cell_setting            triclinic
loop_
_symmetry_equiv_pos_as_xyz
  x,y,z
_cell_length_a                    43.159400000000005
_cell_length_b                    43.159400000000005
_cell_length_c                    25.407000000000004
_cell_angle_alpha                 90.0
_cell_angle_beta                  90.0
_cell_angle_gamma                 90.0
loop_
_atom_site_label
_atom_site_type_symbol
_atom_site_fract_x
_atom_site_fract_y
_atom_site_fract_z
V1    V   0.11585  0.27969  0.00000
V2    V   0.11585  0.72031  0.00000
V3    V   0.27969  0.11585  0.00000
V4    V   0.27969  0.88415  0.00000
V5    V   0.72031  0.11585  0.00000
V6    V   0.72031  0.88415  0.00000
V7    V   0.88415  0.27969  0.00000
V8    V   0.88415  0.72031  0.00000
EC1    EC   0.22032  0.38415  0.30320
EC2    EC   0.22032  0.38415  0.69680
EC3    EC   0.22032  0.61585  0.30320
EC4    EC   0.22032  0.61585  0.69680
EC5    EC   0.38415  0.22032  0.30320
EC6    EC   0.38415  0.22032  0.69680
EC7    EC   0.38415  0.77968  0.30320
EC8    EC   0.38415  0.77968  0.69680
EC9    EC   0.61585  0.22032  0.30320
EC10   EC   0.61585  0.22032  0.69680
EC11   EC   0.61585  0.77968  0.30320
EC12   EC   0.61585  0.77968  0.69680
EC13   EC   0.77968  0.38415  0.30320
EC14   EC   0.77968  0.38415  0.69680
EC15   EC   0.77968  0.61585  0.30320
EC16   EC   0.77968  0.61585  0.69680
E1    E   0.00000  0.27969  0.00000
E2    E   0.00000  0.72031  0.00000
E3    E   0.16808  0.33192  0.15160
E4    E   0.16808  0.33192  0.84840
E5    E   0.16808  0.66808  0.15160
E6    E   0.16808  0.66808  0.84840
E7    E   0.19777  0.19777  0.00000
E8    E   0.19777  0.80223  0.00000
E9    E   0.22032  0.38415  0.50000
E10   E   0.22032  0.50000  0.30320
E11   E   0.22032  0.50000  0.69680
E12   E   0.22032  0.61585  0.50000
E13   E   0.27969  0.00000  0.00000
E14   E   0.30223  0.30223  0.30320
E15   E   0.30223  0.30223  0.69680
E16   E   0.30223  0.69777  0.30320
E17   E   0.30223  0.69777  0.69680
E18   E   0.33192  0.16808  0.15160
E19   E   0.33192  0.16808  0.84840
E20   E   0.33192  0.83192  0.15160
E21   E   0.33192  0.83192  0.84840
E22   E   0.38415  0.22032  0.50000
E23   E   0.38415  0.77968  0.50000
E24   E   0.50000  0.22032  0.30320
E25   E   0.50000  0.22032  0.69680
E26   E   0.50000  0.77968  0.30320
E27   E   0.50000  0.77968  0.69680
E28   E   0.61585  0.22032  0.50000
E29   E   0.61585  0.77968  0.50000
E30   E   0.66808  0.16808  0.15160
E31   E   0.66808  0.16808  0.84840
E32   E   0.66808  0.83192  0.15160
E33   E   0.66808  0.83192  0.84840
E34   E   0.69777  0.30223  0.30320
E35   E   0.69777  0.30223  0.69680
E36   E   0.69777  0.69777  0.30320
E37   E   0.69777  0.69777  0.69680
E38   E   0.72031  0.00000  0.00000
E39   E   0.77968  0.38415  0.50000
E40   E   0.77968  0.50000  0.30320
E41   E   0.77968  0.50000  0.69680
E42   E   0.77968  0.61585  0.50000
E43   E   0.80223  0.19777  0.00000
E44   E   0.80223  0.80223  0.00000
E45   E   0.83192  0.33192  0.15160
E46   E   0.83192  0.33192  0.84840
E47   E   0.83192  0.66808  0.15160
E48   E   0.83192  0.66808  0.84840
loop_
