data_bbi_C2221  hall_number: 116, V_con: 4, EC_con: 4
_audit_creation_date              2025-03-05
_audit_creation_method            'MOFbuilder_1.0'
_symmetry_space_group_name_H-M    'P1'
_symmetry_Int_Tables_number       1
_symmetry_cell_setting            triclinic
loop_
_symmetry_equiv_pos_as_xyz
  x,y,z
_cell_length_a                    28.827199999999998
_cell_length_b                    22.406399999999998
_cell_length_c                    33.3115
_cell_angle_alpha                 90.0
_cell_angle_beta                  90.0
_cell_angle_gamma                 90.0
loop_
_atom_site_label
_atom_site_type_symbol
_atom_site_fract_x
_atom_site_fract_y
_atom_site_fract_z
V1    V   0.19946  0.50000  0.50000
V2    V   0.30054  0.00000  0.00000
V3    V   0.69946  0.00000  0.50000
V4    V   0.80054  0.50000  0.00000
EC1    EC   0.00012  0.16654  0.09990
EC2    EC   0.00012  0.83346  0.90010
EC3    EC   0.49988  0.33346  0.59990
EC4    EC   0.49988  0.66654  0.40010
EC5    EC   0.50012  0.33346  0.90010
EC6    EC   0.50012  0.66654  0.09990
EC7    EC   0.99988  0.16654  0.40010
EC8    EC   0.99988  0.83346  0.59990
E1    E   0.00000  0.16654  0.25000
E2    E   0.00000  0.83346  0.75000
E3    E   0.00012  0.00000  0.00000
E4    E   0.09967  0.33327  0.45005
E5    E   0.09967  0.66673  0.54995
E6    E   0.15033  0.08327  0.04995
E7    E   0.15033  0.91673  0.95005
E8    E   0.34967  0.41673  0.54995
E9    E   0.34967  0.58327  0.45005
E10   E   0.40033  0.16673  0.95005
E11   E   0.40033  0.83327  0.04995
E12   E   0.49988  0.50000  0.50000
E13   E   0.50000  0.33346  0.75000
E14   E   0.50000  0.66654  0.25000
E15   E   0.50012  0.50000  0.00000
E16   E   0.59967  0.16673  0.54995
E17   E   0.59967  0.83327  0.45005
E18   E   0.65033  0.41673  0.95005
E19   E   0.65033  0.58327  0.04995
E20   E   0.84967  0.08327  0.45005
E21   E   0.84967  0.91673  0.54995
E22   E   0.90033  0.33327  0.04995
E23   E   0.90033  0.66673  0.95005
E24   E   0.99988  0.00000  0.50000
loop_
