data_bbj_Ama2  hall_number: 197, V_con: 4, EC_con: 4
_audit_creation_date              2025-03-05
_audit_creation_method            'MOFbuilder_1.0'
_symmetry_space_group_name_H-M    'P1'
_symmetry_Int_Tables_number       1
_symmetry_cell_setting            triclinic
loop_
_symmetry_equiv_pos_as_xyz
  x,y,z
_cell_length_a                    33.0742
_cell_length_b                    22.8059
_cell_length_c                    28.5034
_cell_angle_alpha                 90.0
_cell_angle_beta                  90.0
_cell_angle_gamma                 90.0
loop_
_atom_site_label
_atom_site_type_symbol
_atom_site_fract_x
_atom_site_fract_y
_atom_site_fract_z
V1    V   0.00000  0.00000  0.30383
V2    V   0.00000  0.50000  0.80383
V3    V   0.50000  0.00000  0.30383
V4    V   0.50000  0.50000  0.80383
EC1    EC   0.09883  0.33409  0.50000
EC2    EC   0.09883  0.83409  0.00000
EC3    EC   0.40117  0.33409  0.50000
EC4    EC   0.40117  0.83409  0.00000
EC5    EC   0.59883  0.16591  0.00000
EC6    EC   0.59883  0.66591  0.50000
EC7    EC   0.90117  0.16591  0.00000
EC8    EC   0.90117  0.66591  0.50000
E1    E   0.00000  0.00000  0.00000
E2    E   0.00000  0.50000  0.50000
E3    E   0.04941  0.16705  0.40192
E4    E   0.04941  0.41705  0.65192
E5    E   0.04941  0.66705  0.90192
E6    E   0.04941  0.91705  0.15192
E7    E   0.25000  0.33409  0.50000
E8    E   0.25000  0.83409  0.00000
E9    E   0.45059  0.16705  0.40192
E10   E   0.45059  0.41705  0.65192
E11   E   0.45059  0.66705  0.90192
E12   E   0.45059  0.91705  0.15192
E13   E   0.50000  0.00000  0.00000
E14   E   0.50000  0.50000  0.50000
E15   E   0.54941  0.08295  0.15192
E16   E   0.54941  0.33295  0.90192
E17   E   0.54941  0.58295  0.65192
E18   E   0.54941  0.83295  0.40192
E19   E   0.75000  0.16591  0.00000
E20   E   0.75000  0.66591  0.50000
E21   E   0.95059  0.08295  0.15192
E22   E   0.95059  0.33295  0.90192
E23   E   0.95059  0.58295  0.65192
E24   E   0.95059  0.83295  0.40192
loop_
