data_bbo_I4/mmm  hall_number: 424, V_con: 4, EC_con: 4
_audit_creation_date              2025-03-05
_audit_creation_method            'MOFbuilder_1.0'
_symmetry_space_group_name_H-M    'P1'
_symmetry_Int_Tables_number       1
_symmetry_cell_setting            triclinic
loop_
_symmetry_equiv_pos_as_xyz
  x,y,z
_cell_length_a                    52.4736
_cell_length_b                    52.4736
_cell_length_c                    42.976299999999995
_cell_angle_alpha                 90.0
_cell_angle_beta                  90.0
_cell_angle_gamma                 90.0
loop_
_atom_site_label
_atom_site_type_symbol
_atom_site_fract_x
_atom_site_fract_y
_atom_site_fract_z
V1    V   0.25000  0.25000  0.25000
V2    V   0.25000  0.25000  0.75000
V3    V   0.25000  0.75000  0.25000
V4    V   0.25000  0.75000  0.75000
V5    V   0.75000  0.25000  0.25000
V6    V   0.75000  0.25000  0.75000
V7    V   0.75000  0.75000  0.25000
V8    V   0.75000  0.75000  0.75000
EC1    EC   0.09529  0.23004  0.38366
EC2    EC   0.09529  0.23004  0.61634
EC3    EC   0.09529  0.76996  0.38366
EC4    EC   0.09529  0.76996  0.61634
EC5    EC   0.23004  0.09529  0.38366
EC6    EC   0.23004  0.09529  0.61634
EC7    EC   0.23004  0.90471  0.38366
EC8    EC   0.23004  0.90471  0.61634
EC9    EC   0.26996  0.40471  0.11634
EC10   EC   0.26996  0.40471  0.88366
EC11   EC   0.26996  0.59529  0.11634
EC12   EC   0.26996  0.59529  0.88366
EC13   EC   0.40471  0.26996  0.11634
EC14   EC   0.40471  0.26996  0.88366
EC15   EC   0.40471  0.73004  0.11634
EC16   EC   0.40471  0.73004  0.88366
EC17   EC   0.59529  0.26996  0.11634
EC18   EC   0.59529  0.26996  0.88366
EC19   EC   0.59529  0.73004  0.11634
EC20   EC   0.59529  0.73004  0.88366
EC21   EC   0.73004  0.40471  0.11634
EC22   EC   0.73004  0.40471  0.88366
EC23   EC   0.73004  0.59529  0.11634
EC24   EC   0.73004  0.59529  0.88366
EC25   EC   0.76996  0.09529  0.38366
EC26   EC   0.76996  0.09529  0.61634
EC27   EC   0.76996  0.90471  0.38366
EC28   EC   0.76996  0.90471  0.61634
EC29   EC   0.90471  0.23004  0.38366
EC30   EC   0.90471  0.23004  0.61634
EC31   EC   0.90471  0.76996  0.38366
EC32   EC   0.90471  0.76996  0.61634
E1    E   0.00000  0.23004  0.38366
E2    E   0.00000  0.23004  0.61634
E3    E   0.00000  0.76996  0.38366
E4    E   0.00000  0.76996  0.61634
E5    E   0.09529  0.23004  0.50000
E6    E   0.09529  0.76996  0.50000
E7    E   0.16266  0.16266  0.38366
E8    E   0.16266  0.16266  0.61634
E9    E   0.16266  0.83734  0.38366
E10   E   0.16266  0.83734  0.61634
E11   E   0.17264  0.24002  0.31683
E12   E   0.17264  0.24002  0.68317
E13   E   0.17264  0.75998  0.31683
E14   E   0.17264  0.75998  0.68317
E15   E   0.23004  0.00000  0.38366
E16   E   0.23004  0.00000  0.61634
E17   E   0.23004  0.09529  0.50000
E18   E   0.23004  0.90471  0.50000
E19   E   0.24002  0.17264  0.31683
E20   E   0.24002  0.17264  0.68317
E21   E   0.24002  0.82736  0.31683
E22   E   0.24002  0.82736  0.68317
E23   E   0.25998  0.32736  0.18317
E24   E   0.25998  0.32736  0.81683
E25   E   0.25998  0.67264  0.18317
E26   E   0.25998  0.67264  0.81683
E27   E   0.26996  0.40471  0.00000
E28   E   0.26996  0.50000  0.11634
E29   E   0.26996  0.50000  0.88366
E30   E   0.26996  0.59529  0.00000
E31   E   0.32736  0.25998  0.18317
E32   E   0.32736  0.25998  0.81683
E33   E   0.32736  0.74002  0.18317
E34   E   0.32736  0.74002  0.81683
E35   E   0.33734  0.33734  0.11634
E36   E   0.33734  0.33734  0.88366
E37   E   0.33734  0.66266  0.11634
E38   E   0.33734  0.66266  0.88366
E39   E   0.40471  0.26996  0.00000
E40   E   0.40471  0.73004  0.00000
E41   E   0.50000  0.26996  0.11634
E42   E   0.50000  0.26996  0.88366
E43   E   0.50000  0.73004  0.11634
E44   E   0.50000  0.73004  0.88366
E45   E   0.59529  0.26996  0.00000
E46   E   0.59529  0.73004  0.00000
E47   E   0.66266  0.33734  0.11634
E48   E   0.66266  0.33734  0.88366
E49   E   0.66266  0.66266  0.11634
E50   E   0.66266  0.66266  0.88366
E51   E   0.67264  0.25998  0.18317
E52   E   0.67264  0.25998  0.81683
E53   E   0.67264  0.74002  0.18317
E54   E   0.67264  0.74002  0.81683
E55   E   0.73004  0.40471  0.00000
E56   E   0.73004  0.50000  0.11634
E57   E   0.73004  0.50000  0.88366
E58   E   0.73004  0.59529  0.00000
E59   E   0.74002  0.32736  0.18317
E60   E   0.74002  0.32736  0.81683
E61   E   0.74002  0.67264  0.18317
E62   E   0.74002  0.67264  0.81683
E63   E   0.75998  0.17264  0.31683
E64   E   0.75998  0.17264  0.68317
E65   E   0.75998  0.82736  0.31683
E66   E   0.75998  0.82736  0.68317
E67   E   0.76996  0.00000  0.38366
E68   E   0.76996  0.00000  0.61634
E69   E   0.76996  0.09529  0.50000
E70   E   0.76996  0.90471  0.50000
E71   E   0.82736  0.24002  0.31683
E72   E   0.82736  0.24002  0.68317
E73   E   0.82736  0.75998  0.31683
E74   E   0.82736  0.75998  0.68317
E75   E   0.83734  0.16266  0.38366
E76   E   0.83734  0.16266  0.61634
E77   E   0.83734  0.83734  0.38366
E78   E   0.83734  0.83734  0.61634
E79   E   0.90471  0.23004  0.50000
E80   E   0.90471  0.76996  0.50000
loop_
