data_bbs_P6122  hall_number: 472, V_con: 4, EC_con: 4
_audit_creation_date              2025-03-05
_audit_creation_method            'MOFbuilder_1.0'
_symmetry_space_group_name_H-M    'P1'
_symmetry_Int_Tables_number       1
_symmetry_cell_setting            triclinic
loop_
_symmetry_equiv_pos_as_xyz
  x,y,z
_cell_length_a                    38.288199999999996
_cell_length_b                    38.288199999999996
_cell_length_c                    17.9225
_cell_angle_alpha                 90.0
_cell_angle_beta                  90.0
_cell_angle_gamma                 120.0
loop_
_atom_site_label
_atom_site_type_symbol
_atom_site_fract_x
_atom_site_fract_y
_atom_site_fract_z
V1    V   0.00000  0.44205  0.83333
V2    V   0.00000  0.55795  0.33333
V3    V   0.44205  0.00000  0.50000
V4    V   0.44205  0.44205  0.66667
V5    V   0.55795  0.00000  0.00000
V6    V   0.55795  0.55795  0.16667
EC1    EC   0.14390  0.28781  0.75000
EC2    EC   0.14390  0.85609  0.41667
EC3    EC   0.14391  0.28781  0.75000
EC4    EC   0.14391  0.85610  0.41666
EC5    EC   0.28781  0.14390  0.58334
EC6    EC   0.28781  0.14391  0.58333
EC7    EC   0.71219  0.85609  0.08333
EC8    EC   0.71219  0.85610  0.08334
EC9    EC   0.85609  0.14390  0.91666
EC10   EC   0.85609  0.71219  0.25000
EC11   EC   0.85610  0.14391  0.91667
EC12   EC   0.85610  0.71219  0.25000
E1    E   0.00000  0.21586  0.83333
E2    E   0.00000  0.50000  0.08333
E3    E   0.00000  0.50000  0.08333
E4    E   0.00000  0.50000  0.58333
E5    E   0.00000  0.50000  0.58333
E6    E   0.00000  0.78414  0.33333
E7    E   0.00000  0.78414  0.33333
E8    E   0.07195  0.36493  0.79166
E9    E   0.07195  0.70702  0.37500
E10   E   0.21586  0.00000  0.50000
E11   E   0.21586  0.21586  0.66667
E12   E   0.29298  0.36493  0.70834
E13   E   0.29298  0.92805  0.45833
E14   E   0.36493  0.07195  0.54167
E15   E   0.36493  0.29298  0.62500
E16   E   0.50000  0.00000  0.25000
E17   E   0.50000  0.00000  0.75000
E18   E   0.50000  0.50000  0.41667
E19   E   0.50000  0.50000  0.91667
E20   E   0.63507  0.70702  0.12500
E21   E   0.63507  0.92805  0.04167
E22   E   0.70702  0.07195  0.95833
E23   E   0.70702  0.63507  0.20834
E24   E   0.78414  0.00000  0.00000
E25   E   0.78414  0.78414  0.16667
E26   E   0.78414  0.78414  0.16667
E27   E   0.92805  0.29298  0.87500
E28   E   0.92805  0.63507  0.29166
loop_
