data_bbv_I4/mmm  hall_number: 424, V_con: 4, EC_con: 4
_audit_creation_date              2025-03-05
_audit_creation_method            'MOFbuilder_1.0'
_symmetry_space_group_name_H-M    'P1'
_symmetry_Int_Tables_number       1
_symmetry_cell_setting            triclinic
loop_
_symmetry_equiv_pos_as_xyz
  x,y,z
_cell_length_a                    45.37950000000001
_cell_length_b                    45.37950000000001
_cell_length_c                    17.5807
_cell_angle_alpha                 90.0
_cell_angle_beta                  90.0
_cell_angle_gamma                 90.0
loop_
_atom_site_label
_atom_site_type_symbol
_atom_site_fract_x
_atom_site_fract_y
_atom_site_fract_z
V1    V   0.00000  0.15582  0.00000
V2    V   0.00000  0.84418  0.00000
V3    V   0.15582  0.00000  0.00000
V4    V   0.34418  0.50000  0.50000
V5    V   0.50000  0.34418  0.50000
V6    V   0.50000  0.65582  0.50000
V7    V   0.65582  0.50000  0.50000
V8    V   0.84418  0.00000  0.00000
EC1    EC   0.21285  0.21285  0.00000
EC2    EC   0.21285  0.78715  0.00000
EC3    EC   0.28715  0.28715  0.50000
EC4    EC   0.28715  0.71285  0.50000
EC5    EC   0.71285  0.28715  0.50000
EC6    EC   0.71285  0.71285  0.50000
EC7    EC   0.78715  0.21285  0.00000
EC8    EC   0.78715  0.78715  0.00000
E1    E   0.07791  0.07791  0.00000
E2    E   0.07791  0.92209  0.00000
E3    E   0.10643  0.18434  0.00000
E4    E   0.10643  0.81566  0.00000
E5    E   0.18434  0.10643  0.00000
E6    E   0.18434  0.89357  0.00000
E7    E   0.25000  0.25000  0.25000
E8    E   0.25000  0.25000  0.75000
E9    E   0.25000  0.75000  0.25000
E10   E   0.25000  0.75000  0.75000
E11   E   0.31566  0.39357  0.50000
E12   E   0.31566  0.60643  0.50000
E13   E   0.39357  0.31566  0.50000
E14   E   0.39357  0.68434  0.50000
E15   E   0.42209  0.42209  0.50000
E16   E   0.42209  0.57791  0.50000
E17   E   0.57791  0.42209  0.50000
E18   E   0.57791  0.57791  0.50000
E19   E   0.60643  0.31566  0.50000
E20   E   0.60643  0.68434  0.50000
E21   E   0.68434  0.39357  0.50000
E22   E   0.68434  0.60643  0.50000
E23   E   0.75000  0.25000  0.25000
E24   E   0.75000  0.25000  0.75000
E25   E   0.75000  0.75000  0.25000
E26   E   0.75000  0.75000  0.75000
E27   E   0.81566  0.10643  0.00000
E28   E   0.81566  0.89357  0.00000
E29   E   0.89357  0.18434  0.00000
E30   E   0.89357  0.81566  0.00000
E31   E   0.92209  0.07791  0.00000
E32   E   0.92209  0.92209  0.00000
loop_
