data_bbx_R32:H  hall_number: 445, V_con: 4, EC_con: 4
_audit_creation_date              2025-03-05
_audit_creation_method            'MOFbuilder_1.0'
_symmetry_space_group_name_H-M    'P1'
_symmetry_Int_Tables_number       1
_symmetry_cell_setting            triclinic
loop_
_symmetry_equiv_pos_as_xyz
  x,y,z
_cell_length_a                    44.15390000000001
_cell_length_b                    44.15390000000001
_cell_length_c                    25.0703
_cell_angle_alpha                 90.0
_cell_angle_beta                  90.0
_cell_angle_gamma                 120.0
loop_
_atom_site_label
_atom_site_type_symbol
_atom_site_fract_x
_atom_site_fract_y
_atom_site_fract_z
V1    V   0.00000  0.00000  0.26152
V2    V   0.00000  0.00000  0.73848
V3    V   0.00000  0.26152  0.00000
V4    V   0.00000  0.73848  0.00000
V5    V   0.26152  0.00000  0.00000
V6    V   0.73848  0.00000  0.00000
EC1    EC   0.00000  0.13076  0.13076
EC2    EC   0.00000  0.86924  0.86924
EC3    EC   0.13076  0.00000  0.13076
EC4    EC   0.13076  0.13076  0.00000
EC5    EC   0.86924  0.00000  0.86924
EC6    EC   0.86924  0.86924  0.00000
E1    E   0.00000  0.00000  0.06538
E2    E   0.00000  0.00000  0.93462
E3    E   0.00000  0.06538  0.00000
E4    E   0.00000  0.06538  0.19614
E5    E   0.00000  0.80386  0.93462
E6    E   0.00000  0.93462  0.00000
E7    E   0.03591  0.33333  0.83333
E8    E   0.06538  0.00000  0.00000
E9    E   0.06538  0.19614  0.00000
E10   E   0.16667  0.66667  0.96409
E11   E   0.19614  0.00000  0.06538
E12   E   0.33333  0.83333  0.03591
E13   E   0.66667  0.96409  0.16667
E14   E   0.80386  0.93462  0.00000
E15   E   0.83333  0.03591  0.33333
E16   E   0.93462  0.00000  0.00000
E17   E   0.93462  0.00000  0.80386
E18   E   0.96409  0.16667  0.66667
loop_
