data_bby_P6/mmm  hall_number: 485, V_con: 4, EC_con: 4
_audit_creation_date              2025-03-05
_audit_creation_method            'MOFbuilder_1.0'
_symmetry_space_group_name_H-M    'P1'
_symmetry_Int_Tables_number       1
_symmetry_cell_setting            triclinic
loop_
_symmetry_equiv_pos_as_xyz
  x,y,z
_cell_length_a                    72.7802
_cell_length_b                    72.7802
_cell_length_c                    23.5622
_cell_angle_alpha                 90.0
_cell_angle_beta                  90.0
_cell_angle_gamma                 120.0
loop_
_atom_site_label
_atom_site_type_symbol
_atom_site_fract_x
_atom_site_fract_y
_atom_site_fract_z
V1    V   0.07933  0.47096  0.00000
V2    V   0.07933  0.60837  0.00000
V3    V   0.39163  0.47096  0.00000
V4    V   0.39163  0.92067  0.00000
V5    V   0.47096  0.07933  0.00000
V6    V   0.47096  0.39163  0.00000
V7    V   0.52904  0.60837  0.00000
V8    V   0.52904  0.92067  0.00000
V9    V   0.60837  0.07933  0.00000
V10   V   0.60837  0.52904  0.00000
V11   V   0.92067  0.39163  0.00000
V12   V   0.92067  0.52904  0.00000
EC1    EC   0.19593  0.52927  0.28779
EC2    EC   0.19593  0.52927  0.71221
EC3    EC   0.19593  0.66666  0.28779
EC4    EC   0.19593  0.66666  0.71221
EC5    EC   0.33334  0.52927  0.28779
EC6    EC   0.33334  0.52927  0.71221
EC7    EC   0.33334  0.80407  0.28779
EC8    EC   0.33334  0.80407  0.71221
EC9    EC   0.47073  0.66666  0.28779
EC10   EC   0.47073  0.66666  0.71221
EC11   EC   0.47073  0.80407  0.28779
EC12   EC   0.47073  0.80407  0.71221
EC13   EC   0.52927  0.19593  0.28779
EC14   EC   0.52927  0.19593  0.71221
EC15   EC   0.52927  0.33334  0.28779
EC16   EC   0.52927  0.33334  0.71221
EC17   EC   0.66666  0.19593  0.28779
EC18   EC   0.66666  0.19593  0.71221
EC19   EC   0.66666  0.47073  0.28779
EC20   EC   0.66666  0.47073  0.71221
EC21   EC   0.80407  0.33334  0.28779
EC22   EC   0.80407  0.33334  0.71221
EC23   EC   0.80407  0.47073  0.28779
EC24   EC   0.80407  0.47073  0.71221
E1    E   0.00000  0.43130  0.00000
E2    E   0.00000  0.56870  0.00000
E3    E   0.07933  0.53966  0.00000
E4    E   0.07933  0.53967  0.00000
E5    E   0.13763  0.50012  0.14390
E6    E   0.13763  0.50012  0.85610
E7    E   0.13763  0.63751  0.14390
E8    E   0.13763  0.63751  0.85610
E9    E   0.19593  0.52927  0.50000
E10   E   0.19593  0.59796  0.28779
E11   E   0.19593  0.59796  0.71221
E12   E   0.19593  0.59797  0.28779
E13   E   0.19593  0.59797  0.71221
E14   E   0.19593  0.66666  0.50000
E15   E   0.26463  0.52927  0.28779
E16   E   0.26463  0.52927  0.71221
E17   E   0.26463  0.73536  0.28779
E18   E   0.26463  0.73536  0.71221
E19   E   0.26464  0.52927  0.28779
E20   E   0.26464  0.52927  0.71221
E21   E   0.26464  0.73537  0.28779
E22   E   0.26464  0.73537  0.71221
E23   E   0.33334  0.52927  0.50000
E24   E   0.33334  0.80407  0.50000
E25   E   0.36249  0.50012  0.14390
E26   E   0.36249  0.50012  0.85610
E27   E   0.36249  0.86237  0.14390
E28   E   0.36249  0.86237  0.85610
E29   E   0.40203  0.59796  0.28779
E30   E   0.40203  0.59796  0.71221
E31   E   0.40203  0.80407  0.28779
E32   E   0.40203  0.80407  0.71221
E33   E   0.40204  0.59797  0.28779
E34   E   0.40204  0.59797  0.71221
E35   E   0.40204  0.80407  0.28779
E36   E   0.40204  0.80407  0.71221
E37   E   0.43130  0.00000  0.00000
E38   E   0.43130  0.43130  0.00000
E39   E   0.46033  0.53966  0.00000
E40   E   0.46033  0.92067  0.00000
E41   E   0.46034  0.53967  0.00000
E42   E   0.46034  0.92067  0.00000
E43   E   0.47073  0.66666  0.50000
E44   E   0.47073  0.73536  0.28779
E45   E   0.47073  0.73536  0.71221
E46   E   0.47073  0.73537  0.28779
E47   E   0.47073  0.73537  0.71221
E48   E   0.47073  0.80407  0.50000
E49   E   0.49988  0.63751  0.14390
E50   E   0.49988  0.63751  0.85610
E51   E   0.49988  0.86237  0.14390
E52   E   0.49988  0.86237  0.85610
E53   E   0.50012  0.13763  0.14390
E54   E   0.50012  0.13763  0.85610
E55   E   0.50012  0.36249  0.14390
E56   E   0.50012  0.36249  0.85610
E57   E   0.52927  0.19593  0.50000
E58   E   0.52927  0.26463  0.28779
E59   E   0.52927  0.26463  0.71221
E60   E   0.52927  0.26464  0.28779
E61   E   0.52927  0.26464  0.71221
E62   E   0.52927  0.33334  0.50000
E63   E   0.53966  0.07933  0.00000
E64   E   0.53966  0.46033  0.00000
E65   E   0.53967  0.07933  0.00000
E66   E   0.53967  0.46034  0.00000
E67   E   0.56870  0.00000  0.00000
E68   E   0.56870  0.56870  0.00000
E69   E   0.59796  0.19593  0.28779
E70   E   0.59796  0.19593  0.71221
E71   E   0.59796  0.40203  0.28779
E72   E   0.59796  0.40203  0.71221
E73   E   0.59797  0.19593  0.28779
E74   E   0.59797  0.19593  0.71221
E75   E   0.59797  0.40204  0.28779
E76   E   0.59797  0.40204  0.71221
E77   E   0.63751  0.13763  0.14390
E78   E   0.63751  0.13763  0.85610
E79   E   0.63751  0.49988  0.14390
E80   E   0.63751  0.49988  0.85610
E81   E   0.66666  0.19593  0.50000
E82   E   0.66666  0.47073  0.50000
E83   E   0.73536  0.26463  0.28779
E84   E   0.73536  0.26463  0.71221
E85   E   0.73536  0.47073  0.28779
E86   E   0.73536  0.47073  0.71221
E87   E   0.73537  0.26464  0.28779
E88   E   0.73537  0.26464  0.71221
E89   E   0.73537  0.47073  0.28779
E90   E   0.73537  0.47073  0.71221
E91   E   0.80407  0.33334  0.50000
E92   E   0.80407  0.40203  0.28779
E93   E   0.80407  0.40203  0.71221
E94   E   0.80407  0.40204  0.28779
E95   E   0.80407  0.40204  0.71221
E96   E   0.80407  0.47073  0.50000
E97   E   0.86237  0.36249  0.14390
E98   E   0.86237  0.36249  0.85610
E99   E   0.86237  0.49988  0.14390
E100  E   0.86237  0.49988  0.85610
E101  E   0.92067  0.46033  0.00000
E102  E   0.92067  0.46034  0.00000
loop_
