data_bbz_P6/mmm  hall_number: 485, V_con: 4, EC_con: 4
_audit_creation_date              2025-03-05
_audit_creation_method            'MOFbuilder_1.0'
_symmetry_space_group_name_H-M    'P1'
_symmetry_Int_Tables_number       1
_symmetry_cell_setting            triclinic
loop_
_symmetry_equiv_pos_as_xyz
  x,y,z
_cell_length_a                    68.6518
_cell_length_b                    68.6518
_cell_length_c                    15.758399999999998
_cell_angle_alpha                 90.0
_cell_angle_beta                  90.0
_cell_angle_gamma                 120.0
loop_
_atom_site_label
_atom_site_type_symbol
_atom_site_fract_x
_atom_site_fract_y
_atom_site_fract_z
V1    V   0.08410  0.46922  0.00000
V2    V   0.08410  0.61488  0.00000
V3    V   0.38512  0.46922  0.00000
V4    V   0.38512  0.91590  0.00000
V5    V   0.46922  0.08410  0.00000
V6    V   0.46922  0.38512  0.00000
V7    V   0.53078  0.61488  0.00000
V8    V   0.53078  0.91590  0.00000
V9    V   0.61488  0.08410  0.00000
V10   V   0.61488  0.53078  0.00000
V11   V   0.91590  0.38512  0.00000
V12   V   0.91590  0.53078  0.00000
EC1    EC   0.18767  0.52100  0.50000
EC2    EC   0.18767  0.66667  0.50000
EC3    EC   0.33333  0.52100  0.50000
EC4    EC   0.33333  0.81233  0.50000
EC5    EC   0.47900  0.66667  0.50000
EC6    EC   0.47900  0.81233  0.50000
EC7    EC   0.52100  0.18767  0.50000
EC8    EC   0.52100  0.33333  0.50000
EC9    EC   0.66667  0.18767  0.50000
EC10   EC   0.66667  0.47900  0.50000
EC11   EC   0.81233  0.33333  0.50000
EC12   EC   0.81233  0.47900  0.50000
E1    E   0.00000  0.42717  0.00000
E2    E   0.00000  0.57283  0.00000
E3    E   0.08410  0.54205  0.00000
E4    E   0.08410  0.54205  0.00000
E5    E   0.13589  0.49511  0.25000
E6    E   0.13589  0.49511  0.75000
E7    E   0.13589  0.64078  0.25000
E8    E   0.13589  0.64078  0.75000
E9    E   0.18767  0.59383  0.50000
E10   E   0.18767  0.59384  0.50000
E11   E   0.26050  0.52100  0.50000
E12   E   0.26050  0.73950  0.50000
E13   E   0.35922  0.49511  0.25000
E14   E   0.35922  0.49511  0.75000
E15   E   0.35922  0.86411  0.25000
E16   E   0.35922  0.86411  0.75000
E17   E   0.40616  0.59383  0.50000
E18   E   0.40616  0.81233  0.50000
E19   E   0.40617  0.59384  0.50000
E20   E   0.40617  0.81233  0.50000
E21   E   0.42717  0.00000  0.00000
E22   E   0.42717  0.42717  0.00000
E23   E   0.45795  0.54205  0.00000
E24   E   0.45795  0.91590  0.00000
E25   E   0.45795  0.54205  0.00000
E26   E   0.45795  0.91590  0.00000
E27   E   0.47900  0.73950  0.50000
E28   E   0.49511  0.13589  0.25000
E29   E   0.49511  0.13589  0.75000
E30   E   0.49511  0.35922  0.25000
E31   E   0.49511  0.35922  0.75000
E32   E   0.50489  0.64078  0.25000
E33   E   0.50489  0.64078  0.75000
E34   E   0.50489  0.86411  0.25000
E35   E   0.50489  0.86411  0.75000
E36   E   0.52100  0.26050  0.50000
E37   E   0.54205  0.08410  0.00000
E38   E   0.54205  0.45795  0.00000
E39   E   0.54205  0.08410  0.00000
E40   E   0.54205  0.45795  0.00000
E41   E   0.57283  0.00000  0.00000
E42   E   0.57283  0.57283  0.00000
E43   E   0.59383  0.18767  0.50000
E44   E   0.59383  0.40616  0.50000
E45   E   0.59384  0.18767  0.50000
E46   E   0.59384  0.40617  0.50000
E47   E   0.64078  0.13589  0.25000
E48   E   0.64078  0.13589  0.75000
E49   E   0.64078  0.50489  0.25000
E50   E   0.64078  0.50489  0.75000
E51   E   0.73950  0.26050  0.50000
E52   E   0.73950  0.47900  0.50000
E53   E   0.81233  0.40616  0.50000
E54   E   0.81233  0.40617  0.50000
E55   E   0.86411  0.35922  0.25000
E56   E   0.86411  0.35922  0.75000
E57   E   0.86411  0.50489  0.25000
E58   E   0.86411  0.50489  0.75000
E59   E   0.91590  0.45795  0.00000
E60   E   0.91590  0.45795  0.00000
loop_
