data_bcb_P4/mmm  hall_number: 400, V_con: 4, EC_con: 4
_audit_creation_date              2025-03-05
_audit_creation_method            'MOFbuilder_1.0'
_symmetry_space_group_name_H-M    'P1'
_symmetry_Int_Tables_number       1
_symmetry_cell_setting            triclinic
loop_
_symmetry_equiv_pos_as_xyz
  x,y,z
_cell_length_a                    45.76990000000001
_cell_length_b                    45.76990000000001
_cell_length_c                    16.2724
_cell_angle_alpha                 90.0
_cell_angle_beta                  90.0
_cell_angle_gamma                 90.0
loop_
_atom_site_label
_atom_site_type_symbol
_atom_site_fract_x
_atom_site_fract_y
_atom_site_fract_z
V1    V   0.10924  0.39076  0.00000
V2    V   0.10924  0.60924  0.00000
V3    V   0.39076  0.10924  0.00000
V4    V   0.39076  0.89076  0.00000
V5    V   0.60924  0.10924  0.00000
V6    V   0.60924  0.89076  0.00000
V7    V   0.89076  0.39076  0.00000
V8    V   0.89076  0.60924  0.00000
EC1    EC   0.23627  0.39076  0.50000
EC2    EC   0.23627  0.60924  0.50000
EC3    EC   0.39076  0.23627  0.50000
EC4    EC   0.39076  0.76373  0.50000
EC5    EC   0.60924  0.23627  0.50000
EC6    EC   0.60924  0.76373  0.50000
EC7    EC   0.76373  0.39076  0.50000
EC8    EC   0.76373  0.60924  0.50000
E1    E   0.00000  0.39076  0.00000
E2    E   0.00000  0.60924  0.00000
E3    E   0.10924  0.50000  0.00000
E4    E   0.17275  0.39076  0.25000
E5    E   0.17275  0.39076  0.75000
E6    E   0.17275  0.60924  0.25000
E7    E   0.17275  0.60924  0.75000
E8    E   0.23627  0.50000  0.50000
E9    E   0.31351  0.31351  0.50000
E10   E   0.31351  0.68649  0.50000
E11   E   0.39076  0.00000  0.00000
E12   E   0.39076  0.17275  0.25000
E13   E   0.39076  0.17275  0.75000
E14   E   0.39076  0.82725  0.25000
E15   E   0.39076  0.82725  0.75000
E16   E   0.50000  0.10924  0.00000
E17   E   0.50000  0.23627  0.50000
E18   E   0.50000  0.76373  0.50000
E19   E   0.50000  0.89076  0.00000
E20   E   0.60924  0.00000  0.00000
E21   E   0.60924  0.17275  0.25000
E22   E   0.60924  0.17275  0.75000
E23   E   0.60924  0.82725  0.25000
E24   E   0.60924  0.82725  0.75000
E25   E   0.68649  0.31351  0.50000
E26   E   0.68649  0.68649  0.50000
E27   E   0.76373  0.50000  0.50000
E28   E   0.82725  0.39076  0.25000
E29   E   0.82725  0.39076  0.75000
E30   E   0.82725  0.60924  0.25000
E31   E   0.82725  0.60924  0.75000
E32   E   0.89076  0.50000  0.00000
loop_
