data_bcq_Fmmm  hall_number: 334, V_con: 4, EC_con: 4
_audit_creation_date              2025-03-05
_audit_creation_method            'MOFbuilder_1.0'
_symmetry_space_group_name_H-M    'P1'
_symmetry_Int_Tables_number       1
_symmetry_cell_setting            triclinic
loop_
_symmetry_equiv_pos_as_xyz
  x,y,z
_cell_length_a                    42.9713
_cell_length_b                    16.5344
_cell_length_c                    55.622699999999995
_cell_angle_alpha                 90.0
_cell_angle_beta                  90.0
_cell_angle_gamma                 90.0
loop_
_atom_site_label
_atom_site_type_symbol
_atom_site_fract_x
_atom_site_fract_y
_atom_site_fract_z
V1    V   0.00000  0.00000  0.30057
V2    V   0.00000  0.00000  0.69943
V3    V   0.00000  0.50000  0.19943
V4    V   0.00000  0.50000  0.80057
V5    V   0.50000  0.00000  0.19943
V6    V   0.50000  0.00000  0.80057
V7    V   0.50000  0.50000  0.30057
V8    V   0.50000  0.50000  0.69943
EC1    EC   0.18454  0.00000  0.41011
EC2    EC   0.18454  0.00000  0.58989
EC3    EC   0.18454  0.50000  0.08989
EC4    EC   0.18454  0.50000  0.91011
EC5    EC   0.31546  0.00000  0.08989
EC6    EC   0.31546  0.00000  0.91011
EC7    EC   0.31546  0.50000  0.41011
EC8    EC   0.31546  0.50000  0.58989
EC9    EC   0.68454  0.00000  0.08989
EC10   EC   0.68454  0.00000  0.91011
EC11   EC   0.68454  0.50000  0.41011
EC12   EC   0.68454  0.50000  0.58989
EC13   EC   0.81546  0.00000  0.41011
EC14   EC   0.81546  0.00000  0.58989
EC15   EC   0.81546  0.50000  0.08989
EC16   EC   0.81546  0.50000  0.91011
E1    E   0.00000  0.25000  0.25000
E2    E   0.00000  0.25000  0.75000
E3    E   0.00000  0.75000  0.25000
E4    E   0.00000  0.75000  0.75000
E5    E   0.09227  0.00000  0.35534
E6    E   0.09227  0.00000  0.64466
E7    E   0.09227  0.50000  0.14466
E8    E   0.09227  0.50000  0.85534
E9    E   0.18454  0.00000  0.50000
E10   E   0.18454  0.50000  0.00000
E11   E   0.25000  0.25000  0.08989
E12   E   0.25000  0.25000  0.41011
E13   E   0.25000  0.25000  0.58989
E14   E   0.25000  0.25000  0.91011
E15   E   0.25000  0.75000  0.08989
E16   E   0.25000  0.75000  0.41011
E17   E   0.25000  0.75000  0.58989
E18   E   0.25000  0.75000  0.91011
E19   E   0.31546  0.00000  0.00000
E20   E   0.31546  0.50000  0.50000
E21   E   0.40773  0.00000  0.14466
E22   E   0.40773  0.00000  0.85534
E23   E   0.40773  0.50000  0.35534
E24   E   0.40773  0.50000  0.64466
E25   E   0.50000  0.25000  0.25000
E26   E   0.50000  0.25000  0.75000
E27   E   0.50000  0.75000  0.25000
E28   E   0.50000  0.75000  0.75000
E29   E   0.59227  0.00000  0.14466
E30   E   0.59227  0.00000  0.85534
E31   E   0.59227  0.50000  0.35534
E32   E   0.59227  0.50000  0.64466
E33   E   0.68454  0.00000  0.00000
E34   E   0.68454  0.50000  0.50000
E35   E   0.75000  0.25000  0.08989
E36   E   0.75000  0.25000  0.41011
E37   E   0.75000  0.25000  0.58989
E38   E   0.75000  0.25000  0.91011
E39   E   0.75000  0.75000  0.08989
E40   E   0.75000  0.75000  0.41011
E41   E   0.75000  0.75000  0.58989
E42   E   0.75000  0.75000  0.91011
E43   E   0.81546  0.00000  0.50000
E44   E   0.81546  0.50000  0.00000
E45   E   0.90773  0.00000  0.35534
E46   E   0.90773  0.00000  0.64466
E47   E   0.90773  0.50000  0.14466
E48   E   0.90773  0.50000  0.85534
loop_
