data_bcu-g_P4/nnc:2  hall_number: 405, V_con: 3
_audit_creation_date              2025-03-05
_audit_creation_method            'MOFbuilder_1.0'
_symmetry_space_group_name_H-M    'P1'
_symmetry_Int_Tables_number       1
_symmetry_cell_setting            triclinic
loop_
_symmetry_equiv_pos_as_xyz
  x,y,z
_cell_length_a                    31.631700000000002
_cell_length_b                    31.631700000000002
_cell_length_c                    23.537
_cell_angle_alpha                 90.0
_cell_angle_beta                  90.0
_cell_angle_gamma                 90.0
loop_
_atom_site_label
_atom_site_type_symbol
_atom_site_fract_x
_atom_site_fract_y
_atom_site_fract_z
V1    V   0.02377  0.63660  0.39799
V2    V   0.02377  0.86340  0.10201
V3    V   0.13660  0.52377  0.89799
V4    V   0.13660  0.97623  0.60201
V5    V   0.36340  0.52377  0.60201
V6    V   0.36340  0.97623  0.89799
V7    V   0.47623  0.63660  0.10201
V8    V   0.47623  0.86340  0.39799
V9    V   0.52377  0.13660  0.60201
V10   V   0.52377  0.36340  0.89799
V11   V   0.63660  0.02377  0.10201
V12   V   0.63660  0.47623  0.39799
V13   V   0.86340  0.02377  0.39799
V14   V   0.86340  0.47623  0.10201
V15   V   0.97623  0.13660  0.89799
V16   V   0.97623  0.36340  0.60201
E1    E   0.00000  0.00000  0.00000
E2    E   0.00000  0.00000  0.50000
E3    E   0.00000  0.50000  0.00000
E4    E   0.00000  0.50000  0.50000
E5    E   0.02377  0.75000  0.25000
E6    E   0.05642  0.05642  0.75000
E7    E   0.05642  0.44358  0.75000
E8    E   0.05642  0.05642  0.75000
E9    E   0.05642  0.44358  0.75000
E10   E   0.25000  0.52377  0.75000
E11   E   0.25000  0.97623  0.75000
E12   E   0.44358  0.05642  0.75000
E13   E   0.44358  0.05642  0.75000
E14   E   0.44358  0.44358  0.75000
E15   E   0.47623  0.75000  0.25000
E16   E   0.50000  0.00000  0.00000
E17   E   0.50000  0.00000  0.50000
E18   E   0.50000  0.50000  0.00000
E19   E   0.50000  0.50000  0.50000
E20   E   0.52377  0.25000  0.75000
E21   E   0.55642  0.55642  0.25000
E22   E   0.55642  0.94358  0.25000
E23   E   0.75000  0.02377  0.25000
E24   E   0.75000  0.47623  0.25000
E25   E   0.94358  0.55642  0.25000
E26   E   0.94358  0.94358  0.25000
E27   E   0.97623  0.25000  0.75000
loop_
