data_bcy_R-3c:H  hall_number: 167, V_con: 4, EC_con: 4
_audit_creation_date              2025-03-05
_audit_creation_method            'MOFbuilder_1.0'
_symmetry_space_group_name_H-M    'P1'
_symmetry_Int_Tables_number       1
_symmetry_cell_setting            triclinic
loop_
_symmetry_equiv_pos_as_xyz
  x,y,z
_cell_length_a                    62.16929999999999
_cell_length_b                    62.16929999999999
_cell_length_c                    33.001
_cell_angle_alpha                 90.0
_cell_angle_beta                  90.0
_cell_angle_gamma                 120.0
loop_
_atom_site_label
_atom_site_type_symbol
_atom_site_fract_x
_atom_site_fract_y
_atom_site_fract_z
V1    V   0.00000  0.50889  0.25000
V2    V   0.00000  0.99111  0.75000
V3    V   0.50000  0.00889  0.25000
V4    V   0.50000  0.49111  0.75000
EC1    EC   0.25090  0.24099  0.09935
EC2    EC   0.25090  0.25901  0.59935
EC3    EC   0.75090  0.74099  0.40065
EC4    EC   0.75090  0.75901  0.90065
E1    E   0.04122  0.58282  0.15866
E2    E   0.04122  0.91718  0.65866
E3    E   0.04617  0.03767  0.75801
E4    E   0.04617  0.46233  0.25801
E5    E   0.24595  0.24595  0.25000
E6    E   0.24595  0.25405  0.75000
E7    E   0.29708  0.16667  0.58333
E8    E   0.29708  0.33333  0.08333
E9    E   0.54122  0.08282  0.34134
E10   E   0.54122  0.41718  0.84134
E11   E   0.54617  0.53767  0.74199
E12   E   0.54617  0.96233  0.24199
E13   E   0.74595  0.74595  0.25000
E14   E   0.74595  0.75405  0.75000
E15   E   0.79708  0.66667  0.91667
E16   E   0.79708  0.83333  0.41667
loop_
