data_bda_I41/amd:2  hall_number: 427, V_con: 4, EC_con: 4
_audit_creation_date              2025-03-05
_audit_creation_method            'MOFbuilder_1.0'
_symmetry_space_group_name_H-M    'P1'
_symmetry_Int_Tables_number       1
_symmetry_cell_setting            triclinic
loop_
_symmetry_equiv_pos_as_xyz
  x,y,z
_cell_length_a                    54.1935
_cell_length_b                    54.1935
_cell_length_c                    54.0561
_cell_angle_alpha                 90.0
_cell_angle_beta                  90.0
_cell_angle_gamma                 90.0
loop_
_atom_site_label
_atom_site_type_symbol
_atom_site_fract_x
_atom_site_fract_y
_atom_site_fract_z
V1    V   0.16463  0.00000  0.50000
V2    V   0.16463  0.50000  0.50000
V3    V   0.25000  0.08537  0.25000
V4    V   0.25000  0.41463  0.25000
V5    V   0.25000  0.58537  0.75000
V6    V   0.25000  0.91463  0.75000
V7    V   0.33537  0.00000  0.00000
V8    V   0.33537  0.50000  0.00000
V9    V   0.66463  0.00000  0.00000
V10   V   0.66463  0.50000  0.00000
V11   V   0.75000  0.08537  0.25000
V12   V   0.75000  0.41463  0.25000
V13   V   0.75000  0.58537  0.75000
V14   V   0.75000  0.91463  0.75000
V15   V   0.83537  0.00000  0.50000
V16   V   0.83537  0.50000  0.50000
EC1    EC   0.09226  0.04030  0.33469
EC2    EC   0.09226  0.45970  0.33469
EC3    EC   0.09226  0.54030  0.66531
EC4    EC   0.09226  0.95970  0.66531
EC5    EC   0.20970  0.15774  0.41531
EC6    EC   0.20970  0.34226  0.41531
EC7    EC   0.20970  0.65774  0.58469
EC8    EC   0.20970  0.84226  0.58469
EC9    EC   0.29030  0.15774  0.08469
EC10   EC   0.29030  0.34226  0.08469
EC11   EC   0.29030  0.65774  0.91531
EC12   EC   0.29030  0.84226  0.91531
EC13   EC   0.40774  0.04030  0.16531
EC14   EC   0.40774  0.45970  0.16531
EC15   EC   0.40774  0.54030  0.83469
EC16   EC   0.40774  0.95970  0.83469
EC17   EC   0.59226  0.04030  0.16531
EC18   EC   0.59226  0.45970  0.16531
EC19   EC   0.59226  0.54030  0.83469
EC20   EC   0.59226  0.95970  0.83469
EC21   EC   0.70970  0.15774  0.08469
EC22   EC   0.70970  0.34226  0.08469
EC23   EC   0.70970  0.65774  0.91531
EC24   EC   0.70970  0.84226  0.91531
EC25   EC   0.79030  0.15774  0.41531
EC26   EC   0.79030  0.34226  0.41531
EC27   EC   0.79030  0.65774  0.58469
EC28   EC   0.79030  0.84226  0.58469
EC29   EC   0.90774  0.04030  0.33469
EC30   EC   0.90774  0.45970  0.33469
EC31   EC   0.90774  0.54030  0.66531
EC32   EC   0.90774  0.95970  0.66531
E1    E   0.00000  0.04030  0.33469
E2    E   0.00000  0.45970  0.33469
E3    E   0.00000  0.54030  0.66531
E4    E   0.00000  0.95970  0.66531
E5    E   0.12845  0.02015  0.41735
E6    E   0.12845  0.47985  0.41735
E7    E   0.12845  0.52015  0.58265
E8    E   0.12845  0.97985  0.58265
E9    E   0.15098  0.09902  0.37500
E10   E   0.15098  0.09902  0.37500
E11   E   0.15098  0.40098  0.37500
E12   E   0.15098  0.59902  0.62500
E13   E   0.15098  0.90098  0.62500
E14   E   0.17113  0.06284  0.29235
E15   E   0.17113  0.43716  0.29235
E16   E   0.17113  0.56284  0.70765
E17   E   0.17113  0.93716  0.70765
E18   E   0.18716  0.07887  0.45765
E19   E   0.18716  0.42113  0.45765
E20   E   0.18716  0.57887  0.54235
E21   E   0.18716  0.92113  0.54235
E22   E   0.20970  0.25000  0.41531
E23   E   0.20970  0.75000  0.58469
E24   E   0.22985  0.12155  0.33265
E25   E   0.22985  0.37845  0.33265
E26   E   0.22985  0.62155  0.66735
E27   E   0.22985  0.87845  0.66735
E28   E   0.27015  0.12155  0.16735
E29   E   0.27015  0.37845  0.16735
E30   E   0.27015  0.62155  0.83265
E31   E   0.27015  0.87845  0.83265
E32   E   0.29030  0.25000  0.08469
E33   E   0.29030  0.75000  0.91531
E34   E   0.31284  0.07887  0.04235
E35   E   0.31284  0.42113  0.04235
E36   E   0.31284  0.57887  0.95765
E37   E   0.31284  0.92113  0.95765
E38   E   0.32887  0.06284  0.20765
E39   E   0.32887  0.43716  0.20765
E40   E   0.32887  0.56284  0.79235
E41   E   0.32887  0.93716  0.79235
E42   E   0.34902  0.09902  0.12500
E43   E   0.34902  0.09902  0.12500
E44   E   0.34902  0.40098  0.12500
E45   E   0.34902  0.59902  0.87500
E46   E   0.34902  0.90098  0.87500
E47   E   0.37155  0.02015  0.08265
E48   E   0.37155  0.47985  0.08265
E49   E   0.37155  0.52015  0.91735
E50   E   0.37155  0.97985  0.91735
E51   E   0.50000  0.04030  0.16531
E52   E   0.50000  0.45970  0.16531
E53   E   0.50000  0.54030  0.83469
E54   E   0.50000  0.95970  0.83469
E55   E   0.62845  0.02015  0.08265
E56   E   0.62845  0.47985  0.08265
E57   E   0.62845  0.52015  0.91735
E58   E   0.62845  0.97985  0.91735
E59   E   0.65098  0.09902  0.12500
E60   E   0.65098  0.09902  0.12500
E61   E   0.65098  0.40098  0.12500
E62   E   0.65098  0.59902  0.87500
E63   E   0.65098  0.90098  0.87500
E64   E   0.67113  0.06284  0.20765
E65   E   0.67113  0.43716  0.20765
E66   E   0.67113  0.56284  0.79235
E67   E   0.67113  0.93716  0.79235
E68   E   0.68716  0.07887  0.04235
E69   E   0.68716  0.42113  0.04235
E70   E   0.68716  0.57887  0.95765
E71   E   0.68716  0.92113  0.95765
E72   E   0.70970  0.25000  0.08469
E73   E   0.70970  0.75000  0.91531
E74   E   0.72985  0.12155  0.16735
E75   E   0.72985  0.37845  0.16735
E76   E   0.72985  0.62155  0.83265
E77   E   0.72985  0.87845  0.83265
E78   E   0.77015  0.12155  0.33265
E79   E   0.77015  0.37845  0.33265
E80   E   0.77015  0.62155  0.66735
E81   E   0.77015  0.87845  0.66735
E82   E   0.79030  0.25000  0.41531
E83   E   0.79030  0.75000  0.58469
E84   E   0.81284  0.07887  0.45765
E85   E   0.81284  0.42113  0.45765
E86   E   0.81284  0.57887  0.54235
E87   E   0.81284  0.92113  0.54235
E88   E   0.82887  0.06284  0.29235
E89   E   0.82887  0.43716  0.29235
E90   E   0.82887  0.56284  0.70765
E91   E   0.82887  0.93716  0.70765
E92   E   0.84902  0.09902  0.37500
E93   E   0.84902  0.09902  0.37500
E94   E   0.84902  0.40098  0.37500
E95   E   0.84902  0.59902  0.62500
E96   E   0.84902  0.90098  0.62500
E97   E   0.87155  0.02015  0.41735
E98   E   0.87155  0.47985  0.41735
E99   E   0.87155  0.52015  0.58265
E100  E   0.87155  0.97985  0.58265
loop_
