data_bel_P-6m2  hall_number: 481, V_con: 4, EC_con: 4
_audit_creation_date              2025-03-05
_audit_creation_method            'MOFbuilder_1.0'
_symmetry_space_group_name_H-M    'P1'
_symmetry_Int_Tables_number       1
_symmetry_cell_setting            triclinic
loop_
_symmetry_equiv_pos_as_xyz
  x,y,z
_cell_length_a                    24.384100000000004
_cell_length_b                    24.384100000000004
_cell_length_c                    21.141399999999997
_cell_angle_alpha                 90.0
_cell_angle_beta                  90.0
_cell_angle_gamma                 120.0
loop_
_atom_site_label
_atom_site_type_symbol
_atom_site_fract_x
_atom_site_fract_y
_atom_site_fract_z
V1    V   0.13670  0.27340  0.00000
V2    V   0.13670  0.86330  0.00000
V3    V   0.72660  0.86330  0.00000
EC1    EC   0.33333  0.66666  0.26350
EC2    EC   0.33333  0.66666  0.73650
EC3    EC   0.33333  0.66667  0.26350
EC4    EC   0.33333  0.66667  0.73650
EC5    EC   0.33334  0.66667  0.26350
EC6    EC   0.33334  0.66667  0.73650
E1    E   0.13670  0.06835  0.00000
E2    E   0.23501  0.47003  0.13175
E3    E   0.23501  0.47003  0.86825
E4    E   0.23501  0.76498  0.13175
E5    E   0.23501  0.76498  0.86825
E6    E   0.23502  0.47003  0.13175
E7    E   0.23502  0.47003  0.86825
E8    E   0.23502  0.76499  0.13175
E9    E   0.23502  0.76499  0.86825
E10   E   0.33333  0.66666  0.50000
E11   E   0.33333  0.66667  0.50000
E12   E   0.33334  0.66667  0.50000
E13   E   0.52997  0.76498  0.13175
E14   E   0.52997  0.76498  0.86825
E15   E   0.52997  0.76499  0.13175
E16   E   0.52997  0.76499  0.86825
E17   E   0.93165  0.06835  0.00000
E18   E   0.93165  0.86330  0.00000
loop_
