data_bne_I12/m1  hall_number: 71, V_con: 4, EC_con: 4
_audit_creation_date              2025-03-05
_audit_creation_method            'MOFbuilder_1.0'
_symmetry_space_group_name_H-M    'P1'
_symmetry_Int_Tables_number       1
_symmetry_cell_setting            triclinic
loop_
_symmetry_equiv_pos_as_xyz
  x,y,z
_cell_length_a                    22.568800000000003
_cell_length_b                    33.203
_cell_length_c                    30.884700000000002
_cell_angle_alpha                 90.0
_cell_angle_beta                  106.6688
_cell_angle_gamma                 90.0
loop_
_atom_site_label
_atom_site_type_symbol
_atom_site_fract_x
_atom_site_fract_y
_atom_site_fract_z
V1    V   0.00000  0.00000  0.00000
V2    V   0.50000  0.50000  0.50000
EC1    EC   0.20014  0.34941  0.37694
EC2    EC   0.20014  0.65059  0.62306
EC3    EC   0.29986  0.15059  0.12306
EC4    EC   0.29986  0.84941  0.87694
EC5    EC   0.70014  0.15059  0.12306
EC6    EC   0.70014  0.84941  0.87694
EC7    EC   0.79986  0.34941  0.37694
EC8    EC   0.79986  0.65059  0.62306
E1    E   0.00000  0.34941  0.50000
E2    E   0.00000  0.65059  0.50000
E3    E   0.14993  0.07529  0.93847
E4    E   0.14993  0.92471  0.06153
E5    E   0.20014  0.50000  0.37694
E6    E   0.20014  0.50000  0.62306
E7    E   0.25000  0.25000  0.25000
E8    E   0.25000  0.75000  0.75000
E9    E   0.29986  0.00000  0.12306
E10   E   0.29986  0.00000  0.87694
E11   E   0.35007  0.42471  0.56153
E12   E   0.35007  0.57529  0.43847
E13   E   0.50000  0.15059  0.00000
E14   E   0.50000  0.84941  0.00000
E15   E   0.64993  0.42471  0.56153
E16   E   0.64993  0.57529  0.43847
E17   E   0.70014  0.00000  0.12306
E18   E   0.70014  0.00000  0.87694
E19   E   0.75000  0.25000  0.25000
E20   E   0.75000  0.75000  0.75000
E21   E   0.79986  0.50000  0.37694
E22   E   0.79986  0.50000  0.62306
E23   E   0.85007  0.07529  0.93847
E24   E   0.85007  0.92471  0.06153
loop_
