data_bor-a_P-43m  hall_number: 511, V_con: 4, EC_con: 3
_audit_creation_date              2025-03-05
_audit_creation_method            'MOFbuilder_1.0'
_symmetry_space_group_name_H-M    'P1'
_symmetry_Int_Tables_number       1
_symmetry_cell_setting            triclinic
loop_
_symmetry_equiv_pos_as_xyz
  x,y,z
_cell_length_a                    52.778999999999996
_cell_length_b                    52.778999999999996
_cell_length_c                    52.778999999999996
_cell_angle_alpha                 90.0
_cell_angle_beta                  90.0
_cell_angle_gamma                 90.0
loop_
_atom_site_label
_atom_site_type_symbol
_atom_site_fract_x
_atom_site_fract_y
_atom_site_fract_z
V1    V   0.06699  0.43301  0.56699
V2    V   0.06699  0.56699  0.43301
V3    V   0.43301  0.06699  0.56699
V4    V   0.43301  0.43301  0.93301
V5    V   0.43301  0.56699  0.06699
V6    V   0.43301  0.93301  0.43301
V7    V   0.56699  0.06699  0.43301
V8    V   0.56699  0.43301  0.06699
V9    V   0.56699  0.56699  0.93301
V10   V   0.56699  0.93301  0.56699
V11   V   0.93301  0.43301  0.43301
V12   V   0.93301  0.56699  0.56699
EC1    EC   0.22170  0.35568  0.64432
EC2    EC   0.22170  0.64432  0.35568
EC3    EC   0.35568  0.22170  0.64432
EC4    EC   0.35568  0.35568  0.77830
EC5    EC   0.35568  0.64432  0.22170
EC6    EC   0.35568  0.77830  0.35568
EC7    EC   0.64432  0.22170  0.35568
EC8    EC   0.64432  0.35568  0.22170
EC9    EC   0.64432  0.64432  0.77830
EC10   EC   0.64432  0.77830  0.64432
EC11   EC   0.77830  0.35568  0.35568
EC12   EC   0.77830  0.64432  0.64432
E1    E   0.00000  0.43301  0.50000
E2    E   0.00000  0.50000  0.43301
E3    E   0.00000  0.50000  0.56699
E4    E   0.00000  0.56699  0.50000
E5    E   0.06699  0.50000  0.50000
E6    E   0.14434  0.39434  0.60566
E7    E   0.14434  0.60566  0.39434
E8    E   0.28869  0.28869  0.64432
E9    E   0.28869  0.35568  0.71131
E10   E   0.28869  0.64432  0.28869
E11   E   0.28869  0.71131  0.35568
E12   E   0.35568  0.28869  0.71131
E13   E   0.35568  0.71131  0.28869
E14   E   0.39434  0.14434  0.60566
E15   E   0.39434  0.39434  0.85566
E16   E   0.39434  0.60566  0.14434
E17   E   0.39434  0.85566  0.39434
E18   E   0.43301  0.00000  0.50000
E19   E   0.43301  0.50000  0.00000
E20   E   0.50000  0.00000  0.43301
E21   E   0.50000  0.00000  0.56699
E22   E   0.50000  0.06699  0.50000
E23   E   0.50000  0.43301  0.00000
E24   E   0.50000  0.50000  0.06699
E25   E   0.50000  0.50000  0.93301
E26   E   0.50000  0.56699  0.00000
E27   E   0.50000  0.93301  0.50000
E28   E   0.56699  0.00000  0.50000
E29   E   0.56699  0.50000  0.00000
E30   E   0.60566  0.14434  0.39434
E31   E   0.60566  0.39434  0.14434
E32   E   0.60566  0.60566  0.85566
E33   E   0.60566  0.85566  0.60566
E34   E   0.64432  0.28869  0.28869
E35   E   0.64432  0.71131  0.71131
E36   E   0.71131  0.28869  0.35568
E37   E   0.71131  0.35568  0.28869
E38   E   0.71131  0.64432  0.71131
E39   E   0.71131  0.71131  0.64432
E40   E   0.85566  0.39434  0.39434
E41   E   0.85566  0.60566  0.60566
E42   E   0.93301  0.50000  0.50000
loop_
