data_bpd_Pnna  hall_number: 245, V_con: 3, EC_con: 3
_audit_creation_date              2025-03-05
_audit_creation_method            'MOFbuilder_1.0'
_symmetry_space_group_name_H-M    'P1'
_symmetry_Int_Tables_number       1
_symmetry_cell_setting            triclinic
loop_
_symmetry_equiv_pos_as_xyz
  x,y,z
_cell_length_a                    59.140499999999996
_cell_length_b                    27.1291
_cell_length_c                    25.2787
_cell_angle_alpha                 90.0
_cell_angle_beta                  90.0
_cell_angle_gamma                 90.0
loop_
_atom_site_label
_atom_site_type_symbol
_atom_site_fract_x
_atom_site_fract_y
_atom_site_fract_z
V1    V   0.18331  0.11317  0.11769
V2    V   0.18331  0.38683  0.38231
V3    V   0.31669  0.61317  0.38231
V4    V   0.31669  0.88683  0.11769
V5    V   0.68331  0.11317  0.88231
V6    V   0.68331  0.38683  0.61769
V7    V   0.81669  0.61317  0.61769
V8    V   0.81669  0.88683  0.88231
EC1    EC   0.04270  0.12833  0.89885
EC2    EC   0.04270  0.37167  0.60115
EC3    EC   0.45730  0.62833  0.60115
EC4    EC   0.45730  0.87167  0.89885
EC5    EC   0.54270  0.12833  0.10115
EC6    EC   0.54270  0.37167  0.39885
EC7    EC   0.95730  0.62833  0.39885
EC8    EC   0.95730  0.87167  0.10115
E1    E   0.00000  0.00000  0.00000
E2    E   0.00000  0.50000  0.50000
E3    E   0.04270  0.25000  0.75000
E4    E   0.11300  0.12075  0.00827
E5    E   0.11300  0.37925  0.49173
E6    E   0.18331  0.25000  0.25000
E7    E   0.25000  0.00000  0.11769
E8    E   0.25000  0.50000  0.38231
E9    E   0.31669  0.75000  0.25000
E10   E   0.38700  0.62075  0.49173
E11   E   0.38700  0.87925  0.00827
E12   E   0.45730  0.75000  0.75000
E13   E   0.50000  0.00000  0.00000
E14   E   0.50000  0.50000  0.50000
E15   E   0.54270  0.25000  0.25000
E16   E   0.61300  0.12075  0.99173
E17   E   0.61300  0.37925  0.50827
E18   E   0.68331  0.25000  0.75000
E19   E   0.75000  0.00000  0.88231
E20   E   0.75000  0.50000  0.61769
E21   E   0.81669  0.75000  0.75000
E22   E   0.88700  0.62075  0.50827
E23   E   0.88700  0.87925  0.99173
E24   E   0.95730  0.75000  0.25000
loop_
