data_bpe_Pnna  hall_number: 245, V_con: 3, EC_con: 3
_audit_creation_date              2025-03-05
_audit_creation_method            'MOFbuilder_1.0'
_symmetry_space_group_name_H-M    'P1'
_symmetry_Int_Tables_number       1
_symmetry_cell_setting            triclinic
loop_
_symmetry_equiv_pos_as_xyz
  x,y,z
_cell_length_a                    54.9751
_cell_length_b                    23.6525
_cell_length_c                    26.7723
_cell_angle_alpha                 90.0
_cell_angle_beta                  90.0
_cell_angle_gamma                 90.0
loop_
_atom_site_label
_atom_site_type_symbol
_atom_site_fract_x
_atom_site_fract_y
_atom_site_fract_z
V1    V   0.18488  0.14760  0.08689
V2    V   0.18488  0.35240  0.41311
V3    V   0.31512  0.64760  0.41311
V4    V   0.31512  0.85240  0.08689
V5    V   0.68488  0.14760  0.91311
V6    V   0.68488  0.35240  0.58689
V7    V   0.81512  0.64760  0.58689
V8    V   0.81512  0.85240  0.91311
EC1    EC   0.04755  0.15355  0.58371
EC2    EC   0.04755  0.34645  0.91629
EC3    EC   0.45245  0.65355  0.91629
EC4    EC   0.45245  0.84645  0.58371
EC5    EC   0.54755  0.15355  0.41629
EC6    EC   0.54755  0.34645  0.08371
EC7    EC   0.95245  0.65355  0.08371
EC8    EC   0.95245  0.84645  0.41629
E1    E   0.00000  0.00000  0.50000
E2    E   0.00000  0.50000  0.00000
E3    E   0.04755  0.25000  0.75000
E4    E   0.11622  0.24703  0.00159
E5    E   0.11622  0.25297  0.49841
E6    E   0.18488  0.25000  0.25000
E7    E   0.25000  0.00000  0.08689
E8    E   0.25000  0.50000  0.41311
E9    E   0.31512  0.75000  0.25000
E10   E   0.38378  0.74703  0.49841
E11   E   0.38378  0.75297  0.00159
E12   E   0.45245  0.75000  0.75000
E13   E   0.50000  0.00000  0.50000
E14   E   0.50000  0.50000  0.00000
E15   E   0.54755  0.25000  0.25000
E16   E   0.61622  0.24703  0.99841
E17   E   0.61622  0.25297  0.50159
E18   E   0.68488  0.25000  0.75000
E19   E   0.75000  0.00000  0.91311
E20   E   0.75000  0.50000  0.58689
E21   E   0.81512  0.75000  0.75000
E22   E   0.88378  0.74703  0.50159
E23   E   0.88378  0.75297  0.99841
E24   E   0.95245  0.75000  0.25000
loop_
