data_bpi_Pbcn  hall_number: 284, V_con: 3, EC_con: 3
_audit_creation_date              2025-03-05
_audit_creation_method            'MOFbuilder_1.0'
_symmetry_space_group_name_H-M    'P1'
_symmetry_Int_Tables_number       1
_symmetry_cell_setting            triclinic
loop_
_symmetry_equiv_pos_as_xyz
  x,y,z
_cell_length_a                    26.6425
_cell_length_b                    29.8171
_cell_length_c                    47.7507
_cell_angle_alpha                 90.0
_cell_angle_beta                  90.0
_cell_angle_gamma                 90.0
loop_
_atom_site_label
_atom_site_type_symbol
_atom_site_fract_x
_atom_site_fract_y
_atom_site_fract_z
V1    V   0.12490  0.20099  0.17181
V2    V   0.12490  0.79901  0.67181
V3    V   0.37510  0.29901  0.67181
V4    V   0.37510  0.70099  0.17181
V5    V   0.62490  0.29901  0.82819
V6    V   0.62490  0.70099  0.32819
V7    V   0.87510  0.20099  0.32819
V8    V   0.87510  0.79901  0.82819
EC1    EC   0.12484  0.49919  0.57822
EC2    EC   0.12484  0.50081  0.07822
EC3    EC   0.37516  0.00081  0.07822
EC4    EC   0.37516  0.99919  0.57822
EC5    EC   0.62484  0.00081  0.42178
EC6    EC   0.62484  0.99919  0.92178
EC7    EC   0.87516  0.49919  0.92178
EC8    EC   0.87516  0.50081  0.42178
E1    E   0.00000  0.20099  0.25000
E2    E   0.00000  0.50000  0.00000
E3    E   0.00000  0.50000  0.50000
E4    E   0.00000  0.79901  0.75000
E5    E   0.12487  0.35090  0.12502
E6    E   0.12487  0.64910  0.62502
E7    E   0.24997  0.39910  0.62502
E8    E   0.24997  0.60090  0.12502
E9    E   0.25003  0.10090  0.12502
E10   E   0.25003  0.89910  0.62502
E11   E   0.37513  0.14910  0.62502
E12   E   0.37513  0.85090  0.12502
E13   E   0.50000  0.00000  0.00000
E14   E   0.50000  0.00000  0.50000
E15   E   0.50000  0.29901  0.75000
E16   E   0.50000  0.70099  0.25000
E17   E   0.62487  0.14910  0.87498
E18   E   0.62487  0.85090  0.37498
E19   E   0.74997  0.10090  0.37498
E20   E   0.74997  0.89910  0.87498
E21   E   0.75003  0.39910  0.87498
E22   E   0.75003  0.60090  0.37498
E23   E   0.87513  0.35090  0.37498
E24   E   0.87513  0.64910  0.87498
loop_
