data_bpn_Pcca  hall_number: 257, V_con: 3, EC_con: 3
_audit_creation_date              2025-03-05
_audit_creation_method            'MOFbuilder_1.0'
_symmetry_space_group_name_H-M    'P1'
_symmetry_Int_Tables_number       1
_symmetry_cell_setting            triclinic
loop_
_symmetry_equiv_pos_as_xyz
  x,y,z
_cell_length_a                    51.6857
_cell_length_b                    18.523600000000002
_cell_length_c                    37.166000000000004
_cell_angle_alpha                 90.0
_cell_angle_beta                  90.0
_cell_angle_gamma                 90.0
loop_
_atom_site_label
_atom_site_type_symbol
_atom_site_fract_x
_atom_site_fract_y
_atom_site_fract_z
V1    V   0.03187  0.06462  0.12293
V2    V   0.03187  0.93538  0.62293
V3    V   0.46813  0.06462  0.62293
V4    V   0.46813  0.93538  0.12293
V5    V   0.53187  0.06462  0.87707
V6    V   0.53187  0.93538  0.37707
V7    V   0.96813  0.06462  0.37707
V8    V   0.96813  0.93538  0.87707
EC1    EC   0.21350  0.24989  0.12292
EC2    EC   0.21350  0.75011  0.62292
EC3    EC   0.28650  0.24989  0.62292
EC4    EC   0.28650  0.75011  0.12292
EC5    EC   0.71350  0.24989  0.87708
EC6    EC   0.71350  0.75011  0.37708
EC7    EC   0.78650  0.24989  0.37708
EC8    EC   0.78650  0.75011  0.87708
E1    E   0.00000  0.00000  0.00000
E2    E   0.00000  0.00000  0.50000
E3    E   0.00000  0.06462  0.25000
E4    E   0.00000  0.93538  0.75000
E5    E   0.12268  0.15726  0.12292
E6    E   0.12268  0.84274  0.62292
E7    E   0.25000  0.00000  0.12292
E8    E   0.25000  0.00000  0.62292
E9    E   0.25000  0.50000  0.12292
E10   E   0.25000  0.50000  0.62292
E11   E   0.37732  0.15726  0.62292
E12   E   0.37732  0.84274  0.12292
E13   E   0.50000  0.00000  0.00000
E14   E   0.50000  0.00000  0.50000
E15   E   0.50000  0.06462  0.75000
E16   E   0.50000  0.93538  0.25000
E17   E   0.62268  0.15726  0.87708
E18   E   0.62268  0.84274  0.37708
E19   E   0.75000  0.00000  0.37708
E20   E   0.75000  0.00000  0.87708
E21   E   0.75000  0.50000  0.37708
E22   E   0.75000  0.50000  0.87708
E23   E   0.87732  0.15726  0.37708
E24   E   0.87732  0.84274  0.87708
loop_
