data_bpt_Pnnn:2  hall_number: 229, V_con: 3, EC_con: 3
_audit_creation_date              2025-03-05
_audit_creation_method            'MOFbuilder_1.0'
_symmetry_space_group_name_H-M    'P1'
_symmetry_Int_Tables_number       1
_symmetry_cell_setting            triclinic
loop_
_symmetry_equiv_pos_as_xyz
  x,y,z
_cell_length_a                    29.7687
_cell_length_b                    55.717299999999994
_cell_length_c                    21.082800000000002
_cell_angle_alpha                 90.0
_cell_angle_beta                  90.0
_cell_angle_gamma                 90.0
loop_
_atom_site_label
_atom_site_type_symbol
_atom_site_fract_x
_atom_site_fract_y
_atom_site_fract_z
V1    V   0.25000  0.16025  0.75000
V2    V   0.25000  0.33975  0.75000
V3    V   0.75000  0.66025  0.25000
V4    V   0.75000  0.83975  0.25000
EC1    EC   0.14178  0.04058  0.06855
EC2    EC   0.14178  0.45942  0.43145
EC3    EC   0.35822  0.04058  0.43145
EC4    EC   0.35822  0.45942  0.06855
EC5    EC   0.64178  0.54058  0.93145
EC6    EC   0.64178  0.95942  0.56855
EC7    EC   0.85822  0.54058  0.56855
EC8    EC   0.85822  0.95942  0.93145
E1    E   0.00000  0.00000  0.00000
E2    E   0.00000  0.50000  0.50000
E3    E   0.19589  0.10041  0.90928
E4    E   0.19589  0.39959  0.59072
E5    E   0.25000  0.04058  0.25000
E6    E   0.25000  0.25000  0.75000
E7    E   0.25000  0.45942  0.25000
E8    E   0.30411  0.10041  0.59072
E9    E   0.30411  0.39959  0.90928
E10   E   0.50000  0.00000  0.50000
E11   E   0.50000  0.50000  0.00000
E12   E   0.69589  0.60041  0.09072
E13   E   0.69589  0.89959  0.40928
E14   E   0.75000  0.54058  0.75000
E15   E   0.75000  0.75000  0.25000
E16   E   0.75000  0.95942  0.75000
E17   E   0.80411  0.60041  0.40928
E18   E   0.80411  0.89959  0.09072
loop_
