data_bsv_I41/amd:2  hall_number: 427, V_con: 4, EC_con: 4
_audit_creation_date              2025-03-05
_audit_creation_method            'MOFbuilder_1.0'
_symmetry_space_group_name_H-M    'P1'
_symmetry_Int_Tables_number       1
_symmetry_cell_setting            triclinic
loop_
_symmetry_equiv_pos_as_xyz
  x,y,z
_cell_length_a                    50.793
_cell_length_b                    50.793
_cell_length_c                    35.814499999999995
_cell_angle_alpha                 90.0
_cell_angle_beta                  90.0
_cell_angle_gamma                 90.0
loop_
_atom_site_label
_atom_site_type_symbol
_atom_site_fract_x
_atom_site_fract_y
_atom_site_fract_z
V1    V   0.09844  0.15156  0.87500
V2    V   0.09844  0.34844  0.87500
V3    V   0.09844  0.65156  0.12500
V4    V   0.09844  0.84844  0.12500
V5    V   0.09844  0.15156  0.87500
V6    V   0.09844  0.34844  0.87500
V7    V   0.09844  0.65156  0.12500
V8    V   0.09844  0.84844  0.12500
V9    V   0.40156  0.15156  0.62500
V10   V   0.40156  0.34844  0.62500
V11   V   0.40156  0.65156  0.37500
V12   V   0.40156  0.84844  0.37500
V13   V   0.40156  0.15156  0.62500
V14   V   0.40156  0.34844  0.62500
V15   V   0.40156  0.65156  0.37500
V16   V   0.40156  0.84844  0.37500
V17   V   0.59844  0.15156  0.62500
V18   V   0.59844  0.15156  0.62500
V19   V   0.59844  0.34844  0.62500
V20   V   0.59844  0.65156  0.37500
V21   V   0.59844  0.84844  0.37500
V22   V   0.90156  0.15156  0.87500
V23   V   0.90156  0.15156  0.87500
V24   V   0.90156  0.34844  0.87500
V25   V   0.90156  0.65156  0.12500
V26   V   0.90156  0.84844  0.12500
EC1    EC   0.18800  0.00000  0.00000
EC2    EC   0.18800  0.50000  0.00000
EC3    EC   0.25000  0.06200  0.75000
EC4    EC   0.25000  0.43800  0.75000
EC5    EC   0.25000  0.56200  0.25000
EC6    EC   0.25000  0.93800  0.25000
EC7    EC   0.31200  0.00000  0.50000
EC8    EC   0.31200  0.50000  0.50000
EC9    EC   0.68800  0.00000  0.50000
EC10   EC   0.68800  0.50000  0.50000
EC11   EC   0.75000  0.06200  0.75000
EC12   EC   0.75000  0.43800  0.75000
EC13   EC   0.75000  0.56200  0.25000
EC14   EC   0.75000  0.93800  0.25000
EC15   EC   0.81200  0.00000  0.00000
EC16   EC   0.81200  0.50000  0.00000
E1    E   0.00000  0.15156  0.87500
E2    E   0.00000  0.34844  0.87500
E3    E   0.00000  0.65156  0.12500
E4    E   0.00000  0.84844  0.12500
E5    E   0.09844  0.25000  0.87500
E6    E   0.09844  0.75000  0.12500
E7    E   0.14322  0.07578  0.93750
E8    E   0.14322  0.42422  0.93750
E9    E   0.14322  0.57578  0.06250
E10   E   0.14322  0.92422  0.06250
E11   E   0.17422  0.10678  0.81250
E12   E   0.17422  0.39322  0.81250
E13   E   0.17422  0.60678  0.18750
E14   E   0.17422  0.89322  0.18750
E15   E   0.21900  0.03100  0.87500
E16   E   0.21900  0.46900  0.87500
E17   E   0.21900  0.53100  0.12500
E18   E   0.21900  0.96900  0.12500
E19   E   0.28100  0.03100  0.62500
E20   E   0.28100  0.46900  0.62500
E21   E   0.28100  0.53100  0.37500
E22   E   0.28100  0.96900  0.37500
E23   E   0.32578  0.10678  0.68750
E24   E   0.32578  0.39322  0.68750
E25   E   0.32578  0.60678  0.31250
E26   E   0.32578  0.89322  0.31250
E27   E   0.35678  0.07578  0.56250
E28   E   0.35678  0.42422  0.56250
E29   E   0.35678  0.57578  0.43750
E30   E   0.35678  0.92422  0.43750
E31   E   0.40156  0.25000  0.62500
E32   E   0.40156  0.75000  0.37500
E33   E   0.50000  0.15156  0.62500
E34   E   0.50000  0.34844  0.62500
E35   E   0.50000  0.65156  0.37500
E36   E   0.50000  0.84844  0.37500
E37   E   0.59844  0.25000  0.62500
E38   E   0.59844  0.75000  0.37500
E39   E   0.64322  0.07578  0.56250
E40   E   0.64322  0.42422  0.56250
E41   E   0.64322  0.57578  0.43750
E42   E   0.64322  0.92422  0.43750
E43   E   0.67422  0.10678  0.68750
E44   E   0.67422  0.39322  0.68750
E45   E   0.67422  0.60678  0.31250
E46   E   0.67422  0.89322  0.31250
E47   E   0.71900  0.03100  0.62500
E48   E   0.71900  0.46900  0.62500
E49   E   0.71900  0.53100  0.37500
E50   E   0.71900  0.96900  0.37500
E51   E   0.78100  0.03100  0.87500
E52   E   0.78100  0.46900  0.87500
E53   E   0.78100  0.53100  0.12500
E54   E   0.78100  0.96900  0.12500
E55   E   0.82578  0.10678  0.81250
E56   E   0.82578  0.39322  0.81250
E57   E   0.82578  0.60678  0.18750
E58   E   0.82578  0.89322  0.18750
E59   E   0.85678  0.07578  0.93750
E60   E   0.85678  0.42422  0.93750
E61   E   0.85678  0.57578  0.06250
E62   E   0.85678  0.92422  0.06250
E63   E   0.90156  0.25000  0.87500
E64   E   0.90156  0.75000  0.12500
loop_
