data_btv_Pmmm  hall_number: 227, V_con: 6, EC_con: 5
_audit_creation_date              2025-03-05
_audit_creation_method            'MOFbuilder_1.0'
_symmetry_space_group_name_H-M    'P1'
_symmetry_Int_Tables_number       1
_symmetry_cell_setting            triclinic
loop_
_symmetry_equiv_pos_as_xyz
  x,y,z
_cell_length_a                    9.9999
_cell_length_b                    16.127
_cell_length_c                    21.8289
_cell_angle_alpha                 90.0
_cell_angle_beta                  90.0
_cell_angle_gamma                 90.0
loop_
_atom_site_label
_atom_site_type_symbol
_atom_site_fract_x
_atom_site_fract_y
_atom_site_fract_z
V1    V   0.00000  0.50000  0.00000
EC1    EC   0.00000  0.00000  0.27095
EC2    EC   0.00000  0.00000  0.72905
E1    E   0.00000  0.00000  0.50000
E2    E   0.00000  0.25000  0.13547
E3    E   0.00000  0.25000  0.86453
E4    E   0.00000  0.75000  0.13547
E5    E   0.00000  0.75000  0.86453
E6    E   0.50000  0.00000  0.27095
E7    E   0.50000  0.00000  0.72905
E8    E   0.50000  0.50000  0.00000
loop_
