data_bvh_Ccca:2  hall_number: 325, V_con: 7, EC_con: 7
_audit_creation_date              2025-03-05
_audit_creation_method            'MOFbuilder_1.0'
_symmetry_space_group_name_H-M    'P1'
_symmetry_Int_Tables_number       1
_symmetry_cell_setting            triclinic
loop_
_symmetry_equiv_pos_as_xyz
  x,y,z
_cell_length_a                    16.3095
_cell_length_b                    31.805799999999998
_cell_length_c                    43.1925
_cell_angle_alpha                 90.0
_cell_angle_beta                  90.0
_cell_angle_gamma                 90.0
loop_
_atom_site_label
_atom_site_type_symbol
_atom_site_fract_x
_atom_site_fract_y
_atom_site_fract_z
V1    V   0.00149  0.09283  0.06665
V2    V   0.00149  0.40717  0.56665
V3    V   0.00149  0.59283  0.93335
V4    V   0.00149  0.90717  0.43335
V5    V   0.49851  0.09283  0.43335
V6    V   0.49851  0.40717  0.93335
V7    V   0.49851  0.59283  0.56665
V8    V   0.49851  0.90717  0.06665
V9    V   0.50149  0.09283  0.93335
V10   V   0.50149  0.40717  0.43335
V11   V   0.50149  0.59283  0.06665
V12   V   0.50149  0.90717  0.56665
V13   V   0.99851  0.09283  0.56665
V14   V   0.99851  0.40717  0.06665
V15   V   0.99851  0.59283  0.43335
V16   V   0.99851  0.90717  0.93335
EC1    EC   0.00000  0.25000  0.36603
EC2    EC   0.00000  0.25000  0.86603
EC3    EC   0.00000  0.75000  0.13397
EC4    EC   0.00000  0.75000  0.63397
EC5    EC   0.50000  0.25000  0.13397
EC6    EC   0.50000  0.25000  0.63397
EC7    EC   0.50000  0.75000  0.36603
EC8    EC   0.50000  0.75000  0.86603
E1    E   0.00000  0.25000  0.06665
E2    E   0.00000  0.25000  0.25000
E3    E   0.00000  0.25000  0.56665
E4    E   0.00000  0.25000  0.75000
E5    E   0.00000  0.75000  0.25000
E6    E   0.00000  0.75000  0.43335
E7    E   0.00000  0.75000  0.75000
E8    E   0.00000  0.75000  0.93335
E9    E   0.00074  0.17141  0.96634
E10   E   0.00074  0.32859  0.46634
E11   E   0.00074  0.67141  0.03366
E12   E   0.00074  0.82859  0.53366
E13   E   0.24851  0.09283  0.50000
E14   E   0.24851  0.40717  0.00000
E15   E   0.24851  0.59283  0.50000
E16   E   0.24851  0.90717  0.00000
E17   E   0.24926  0.17141  0.39969
E18   E   0.24926  0.32859  0.89969
E19   E   0.24926  0.67141  0.60031
E20   E   0.24926  0.82859  0.10031
E21   E   0.24926  0.17141  0.60031
E22   E   0.24926  0.32859  0.10031
E23   E   0.24926  0.67141  0.39969
E24   E   0.24926  0.82859  0.89969
E25   E   0.25000  0.00000  0.06665
E26   E   0.25000  0.00000  0.43335
E27   E   0.25000  0.50000  0.56665
E28   E   0.25000  0.50000  0.93335
E29   E   0.25074  0.17141  0.89969
E30   E   0.25074  0.32859  0.39969
E31   E   0.25074  0.67141  0.10031
E32   E   0.25074  0.82859  0.60031
E33   E   0.25074  0.17141  0.10031
E34   E   0.25074  0.32859  0.60031
E35   E   0.25074  0.67141  0.89969
E36   E   0.25074  0.82859  0.39969
E37   E   0.25149  0.09283  0.00000
E38   E   0.25149  0.40717  0.50000
E39   E   0.25149  0.59283  0.00000
E40   E   0.25149  0.90717  0.50000
E41   E   0.49926  0.17141  0.53366
E42   E   0.49926  0.32859  0.03366
E43   E   0.49926  0.67141  0.46634
E44   E   0.49926  0.82859  0.96634
E45   E   0.50000  0.25000  0.25000
E46   E   0.50000  0.25000  0.43335
E47   E   0.50000  0.25000  0.75000
E48   E   0.50000  0.25000  0.93335
E49   E   0.50000  0.75000  0.06665
E50   E   0.50000  0.75000  0.25000
E51   E   0.50000  0.75000  0.56665
E52   E   0.50000  0.75000  0.75000
E53   E   0.50074  0.17141  0.03366
E54   E   0.50074  0.32859  0.53366
E55   E   0.50074  0.67141  0.96634
E56   E   0.50074  0.82859  0.46634
E57   E   0.74851  0.09283  0.50000
E58   E   0.74851  0.40717  0.00000
E59   E   0.74851  0.59283  0.50000
E60   E   0.74851  0.90717  0.00000
E61   E   0.74926  0.17141  0.39969
E62   E   0.74926  0.17141  0.60031
E63   E   0.74926  0.32859  0.10031
E64   E   0.74926  0.32859  0.89969
E65   E   0.74926  0.67141  0.39969
E66   E   0.74926  0.67141  0.60031
E67   E   0.74926  0.82859  0.10031
E68   E   0.74926  0.82859  0.89969
E69   E   0.75000  0.00000  0.56665
E70   E   0.75000  0.00000  0.93335
E71   E   0.75000  0.50000  0.06665
E72   E   0.75000  0.50000  0.43335
E73   E   0.75074  0.17141  0.10031
E74   E   0.75074  0.17141  0.89969
E75   E   0.75074  0.32859  0.39969
E76   E   0.75074  0.32859  0.60031
E77   E   0.75074  0.67141  0.10031
E78   E   0.75074  0.67141  0.89969
E79   E   0.75074  0.82859  0.39969
E80   E   0.75074  0.82859  0.60031
E81   E   0.75149  0.09283  0.00000
E82   E   0.75149  0.40717  0.50000
E83   E   0.75149  0.59283  0.00000
E84   E   0.75149  0.90717  0.50000
E85   E   0.99926  0.17141  0.46634
E86   E   0.99926  0.32859  0.96634
E87   E   0.99926  0.67141  0.53366
E88   E   0.99926  0.82859  0.03366
loop_
