data_byl_Imma  hall_number: 343, V_con: 4, EC_con: 4
_audit_creation_date              2025-03-05
_audit_creation_method            'MOFbuilder_1.0'
_symmetry_space_group_name_H-M    'P1'
_symmetry_Int_Tables_number       1
_symmetry_cell_setting            triclinic
loop_
_symmetry_equiv_pos_as_xyz
  x,y,z
_cell_length_a                    48.930499999999995
_cell_length_b                    27.868499999999997
_cell_length_c                    27.9752
_cell_angle_alpha                 90.0
_cell_angle_beta                  90.0
_cell_angle_gamma                 90.0
loop_
_atom_site_label
_atom_site_type_symbol
_atom_site_fract_x
_atom_site_fract_y
_atom_site_fract_z
V1    V   0.00000  0.07059  0.33568
V2    V   0.00000  0.42941  0.33568
V3    V   0.00000  0.57059  0.66432
V4    V   0.00000  0.92941  0.66432
V5    V   0.50000  0.07059  0.16432
V6    V   0.50000  0.42941  0.16432
V7    V   0.50000  0.57059  0.83568
V8    V   0.50000  0.92941  0.83568
EC1    EC   0.16032  0.07059  0.83568
EC2    EC   0.16032  0.42941  0.83568
EC3    EC   0.16032  0.57059  0.16432
EC4    EC   0.16032  0.92941  0.16432
EC5    EC   0.33968  0.07059  0.66432
EC6    EC   0.33968  0.42941  0.66432
EC7    EC   0.33968  0.57059  0.33568
EC8    EC   0.33968  0.92941  0.33568
EC9    EC   0.66032  0.07059  0.66432
EC10   EC   0.66032  0.42941  0.66432
EC11   EC   0.66032  0.57059  0.33568
EC12   EC   0.66032  0.92941  0.33568
EC13   EC   0.83968  0.07059  0.83568
EC14   EC   0.83968  0.42941  0.83568
EC15   EC   0.83968  0.57059  0.16432
EC16   EC   0.83968  0.92941  0.16432
E1    E   0.00000  0.00000  0.50000
E2    E   0.00000  0.25000  0.33568
E3    E   0.00000  0.50000  0.50000
E4    E   0.00000  0.75000  0.66432
E5    E   0.08016  0.00000  0.25000
E6    E   0.08016  0.00000  0.75000
E7    E   0.08016  0.50000  0.25000
E8    E   0.08016  0.50000  0.75000
E9    E   0.16032  0.00000  0.00000
E10   E   0.16032  0.25000  0.83568
E11   E   0.16032  0.50000  0.00000
E12   E   0.16032  0.75000  0.16432
E13   E   0.25000  0.07059  0.75000
E14   E   0.25000  0.42941  0.75000
E15   E   0.25000  0.57059  0.25000
E16   E   0.25000  0.92941  0.25000
E17   E   0.33968  0.00000  0.50000
E18   E   0.33968  0.25000  0.66432
E19   E   0.33968  0.50000  0.50000
E20   E   0.33968  0.75000  0.33568
E21   E   0.41984  0.00000  0.25000
E22   E   0.41984  0.00000  0.75000
E23   E   0.41984  0.50000  0.25000
E24   E   0.41984  0.50000  0.75000
E25   E   0.50000  0.00000  0.00000
E26   E   0.50000  0.25000  0.16432
E27   E   0.50000  0.50000  0.00000
E28   E   0.50000  0.75000  0.83568
E29   E   0.58016  0.00000  0.25000
E30   E   0.58016  0.00000  0.75000
E31   E   0.58016  0.50000  0.25000
E32   E   0.58016  0.50000  0.75000
E33   E   0.66032  0.00000  0.50000
E34   E   0.66032  0.25000  0.66432
E35   E   0.66032  0.50000  0.50000
E36   E   0.66032  0.75000  0.33568
E37   E   0.75000  0.07059  0.75000
E38   E   0.75000  0.42941  0.75000
E39   E   0.75000  0.57059  0.25000
E40   E   0.75000  0.92941  0.25000
E41   E   0.83968  0.00000  0.00000
E42   E   0.83968  0.25000  0.83568
E43   E   0.83968  0.50000  0.00000
E44   E   0.83968  0.75000  0.16432
E45   E   0.91984  0.00000  0.25000
E46   E   0.91984  0.00000  0.75000
E47   E   0.91984  0.50000  0.25000
E48   E   0.91984  0.50000  0.75000
loop_
