data_cds-a_P42/mmc  hall_number: 412, V_con: 3, EC_con: 3
_audit_creation_date              2025-03-05
_audit_creation_method            'MOFbuilder_1.0'
_symmetry_space_group_name_H-M    'P1'
_symmetry_Int_Tables_number       1
_symmetry_cell_setting            triclinic
loop_
_symmetry_equiv_pos_as_xyz
  x,y,z
_cell_length_a                    26.8647
_cell_length_b                    26.8647
_cell_length_c                    41.501799999999996
_cell_angle_alpha                 90.0
_cell_angle_beta                  90.0
_cell_angle_gamma                 90.0
loop_
_atom_site_label
_atom_site_type_symbol
_atom_site_fract_x
_atom_site_fract_y
_atom_site_fract_z
V1    V   0.00000  0.31388  0.00000
V2    V   0.00000  0.68612  0.00000
V3    V   0.31388  0.00000  0.50000
V4    V   0.68612  0.00000  0.50000
EC1    EC   0.00000  0.00000  0.12952
EC2    EC   0.00000  0.00000  0.37048
EC3    EC   0.00000  0.00000  0.62952
EC4    EC   0.00000  0.00000  0.87048
E1    E   0.00000  0.00000  0.25000
E2    E   0.00000  0.00000  0.75000
E3    E   0.00000  0.15694  0.06476
E4    E   0.00000  0.15694  0.93524
E5    E   0.00000  0.50000  0.00000
E6    E   0.00000  0.84306  0.06476
E7    E   0.00000  0.84306  0.93524
E8    E   0.15694  0.00000  0.43524
E9    E   0.15694  0.00000  0.56476
E10   E   0.50000  0.00000  0.50000
E11   E   0.84306  0.00000  0.43524
E12   E   0.84306  0.00000  0.56476
loop_
