data_ckp_I4132  hall_number: 510, V_con: 7, EC_con: 6
_audit_creation_date              2025-03-05
_audit_creation_method            'MOFbuilder_1.0'
_symmetry_space_group_name_H-M    'P1'
_symmetry_Int_Tables_number       1
_symmetry_cell_setting            triclinic
loop_
_symmetry_equiv_pos_as_xyz
  x,y,z
_cell_length_a                    64.0134
_cell_length_b                    64.0134
_cell_length_c                    64.0134
_cell_angle_alpha                 90.0
_cell_angle_beta                  90.0
_cell_angle_gamma                 90.0
loop_
_atom_site_label
_atom_site_type_symbol
_atom_site_fract_x
_atom_site_fract_y
_atom_site_fract_z
V1    V   0.01524  0.41680  0.64248
V2    V   0.01524  0.58320  0.85752
V3    V   0.08320  0.35752  0.51524
V4    V   0.08320  0.64248  0.98476
V5    V   0.10752  0.33320  0.73476
V6    V   0.10752  0.66680  0.76524
V7    V   0.14248  0.48476  0.58320
V8    V   0.14248  0.51524  0.91680
V9    V   0.16680  0.26524  0.60752
V10   V   0.16680  0.73476  0.89248
V11   V   0.23476  0.39248  0.66680
V12   V   0.23476  0.60752  0.83320
V13   V   0.26524  0.39248  0.33320
V14   V   0.26524  0.60752  0.16680
V15   V   0.33320  0.26524  0.39248
V16   V   0.33320  0.73476  0.10752
V17   V   0.35752  0.48476  0.41680
V18   V   0.35752  0.51524  0.08320
V19   V   0.39248  0.33320  0.26524
V20   V   0.39248  0.66680  0.23476
V21   V   0.41680  0.35752  0.48476
V22   V   0.41680  0.64248  0.01524
V23   V   0.48476  0.41680  0.35752
V24   V   0.48476  0.58320  0.14248
V25   V   0.51524  0.08320  0.35752
V26   V   0.51524  0.91680  0.14248
V27   V   0.58320  0.14248  0.48476
V28   V   0.58320  0.85752  0.01524
V29   V   0.60752  0.16680  0.26524
V30   V   0.60752  0.83320  0.23476
V31   V   0.64248  0.01524  0.41680
V32   V   0.64248  0.98476  0.08320
V33   V   0.66680  0.23476  0.39248
V34   V   0.66680  0.76524  0.10752
V35   V   0.73476  0.10752  0.33320
V36   V   0.73476  0.89248  0.16680
V37   V   0.76524  0.10752  0.66680
V38   V   0.76524  0.89248  0.83320
V39   V   0.83320  0.23476  0.60752
V40   V   0.83320  0.76524  0.89248
V41   V   0.85752  0.01524  0.58320
V42   V   0.85752  0.98476  0.91680
V43   V   0.89248  0.16680  0.73476
V44   V   0.89248  0.83320  0.76524
V45   V   0.91680  0.14248  0.51524
V46   V   0.91680  0.85752  0.98476
V47   V   0.98476  0.08320  0.64248
V48   V   0.98476  0.91680  0.85752
EC1    EC   0.04617  0.44616  0.80388
EC2    EC   0.04617  0.55384  0.69612
EC3    EC   0.05384  0.19612  0.54617
EC4    EC   0.05384  0.80388  0.95383
EC5    EC   0.05388  0.19616  0.70383
EC6    EC   0.05388  0.80384  0.79617
EC7    EC   0.19612  0.45383  0.44616
EC8    EC   0.19612  0.54617  0.05384
EC9    EC   0.19616  0.29617  0.44612
EC10   EC   0.19616  0.70383  0.05388
EC11   EC   0.20383  0.44612  0.80384
EC12   EC   0.20383  0.55388  0.69616
EC13   EC   0.29617  0.44612  0.19616
EC14   EC   0.29617  0.55388  0.30384
EC15   EC   0.30384  0.29617  0.55388
EC16   EC   0.30384  0.70383  0.94612
EC17   EC   0.30388  0.45383  0.55384
EC18   EC   0.30388  0.54617  0.94616
EC19   EC   0.44612  0.19616  0.29617
EC20   EC   0.44612  0.80384  0.20383
EC21   EC   0.44616  0.19612  0.45383
EC22   EC   0.44616  0.80388  0.04617
EC23   EC   0.45383  0.44616  0.19612
EC24   EC   0.45383  0.55384  0.30388
EC25   EC   0.54617  0.05384  0.19612
EC26   EC   0.54617  0.94616  0.30388
EC27   EC   0.55384  0.30388  0.45383
EC28   EC   0.55384  0.69612  0.04617
EC29   EC   0.55388  0.30384  0.29617
EC30   EC   0.55388  0.69616  0.20383
EC31   EC   0.69612  0.04617  0.55384
EC32   EC   0.69612  0.95383  0.94616
EC33   EC   0.69616  0.20383  0.55388
EC34   EC   0.69616  0.79617  0.94612
EC35   EC   0.70383  0.05388  0.19616
EC36   EC   0.70383  0.94612  0.30384
EC37   EC   0.79617  0.05388  0.80384
EC38   EC   0.79617  0.94612  0.69616
EC39   EC   0.80384  0.20383  0.44612
EC40   EC   0.80384  0.79617  0.05388
EC41   EC   0.80388  0.04617  0.44616
EC42   EC   0.80388  0.95383  0.05384
EC43   EC   0.94612  0.30384  0.70383
EC44   EC   0.94612  0.69616  0.79617
EC45   EC   0.94616  0.30388  0.54617
EC46   EC   0.94616  0.69612  0.95383
EC47   EC   0.95383  0.05384  0.80388
EC48   EC   0.95383  0.94616  0.69612
E1    E   0.00000  0.25000  0.54617
E2    E   0.00000  0.25000  0.70383
E3    E   0.00000  0.75000  0.79617
E4    E   0.00000  0.75000  0.95383
E5    E   0.01468  0.33070  0.53070
E6    E   0.01468  0.66930  0.96930
E7    E   0.01930  0.13966  0.59433
E8    E   0.01930  0.86034  0.90567
E9    E   0.01932  0.13968  0.67316
E10   E   0.01932  0.86032  0.82684
E11   E   0.02682  0.31852  0.71930
E12   E   0.02682  0.68148  0.78070
E13   E   0.03070  0.43148  0.72318
E14   E   0.03070  0.48532  0.66930
E15   E   0.03070  0.51468  0.83070
E16   E   0.03070  0.56852  0.77682
E17   E   0.04617  0.50000  0.75000
E18   E   0.04922  0.38716  0.57886
E19   E   0.04922  0.61284  0.92114
E20   E   0.05386  0.19614  0.62500
E21   E   0.05386  0.80386  0.87500
E22   E   0.05386  0.19614  0.62500
E23   E   0.05386  0.80386  0.87500
E24   E   0.06138  0.37500  0.68862
E25   E   0.06138  0.62500  0.81138
E26   E   0.06852  0.27682  0.53070
E27   E   0.06852  0.72318  0.96930
E28   E   0.07684  0.38968  0.76932
E29   E   0.07684  0.61032  0.73068
E30   E   0.07886  0.45078  0.61284
E31   E   0.07886  0.54922  0.88716
E32   E   0.08070  0.26468  0.71930
E33   E   0.08070  0.73532  0.78070
E34   E   0.09433  0.48070  0.86034
E35   E   0.09433  0.51930  0.63966
E36   E   0.11032  0.23068  0.57684
E37   E   0.11032  0.76932  0.92316
E38   E   0.11034  0.23070  0.65567
E39   E   0.11034  0.76930  0.84433
E40   E   0.11284  0.42114  0.54922
E41   E   0.11284  0.57886  0.95078
E42   E   0.12500  0.31138  0.56138
E43   E   0.12500  0.44614  0.80386
E44   E   0.12500  0.55386  0.69614
E45   E   0.12500  0.68862  0.93862
E46   E   0.13716  0.29922  0.67114
E47   E   0.13716  0.70078  0.82886
E48   E   0.13966  0.40567  0.48070
E49   E   0.13966  0.59433  0.01930
E50   E   0.13968  0.32684  0.48068
E51   E   0.13968  0.67316  0.01932
E52   E   0.15567  0.38966  0.76930
E53   E   0.15567  0.61034  0.73070
E54   E   0.16930  0.46930  0.51468
E55   E   0.16930  0.53070  0.98532
E56   E   0.17114  0.36284  0.70078
E57   E   0.17114  0.63716  0.79922
E58   E   0.17316  0.48068  0.86032
E59   E   0.17316  0.51932  0.63968
E60   E   0.18148  0.28070  0.52682
E61   E   0.18148  0.71930  0.97318
E62   E   0.18862  0.43862  0.62500
E63   E   0.18862  0.56138  0.87500
E64   E   0.19614  0.37500  0.44614
E65   E   0.19614  0.62500  0.05386
E66   E   0.19614  0.37500  0.44614
E67   E   0.19614  0.62500  0.05386
E68   E   0.20078  0.32886  0.63716
E69   E   0.20078  0.67114  0.86284
E70   E   0.20383  0.50000  0.75000
E71   E   0.21930  0.41930  0.73532
E72   E   0.21930  0.47318  0.68148
E73   E   0.21930  0.52682  0.81852
E74   E   0.21930  0.58070  0.76468
E75   E   0.22318  0.46930  0.56852
E76   E   0.22318  0.53070  0.93148
E77   E   0.23068  0.42316  0.38968
E78   E   0.23068  0.57684  0.11032
E79   E   0.23070  0.34433  0.38966
E80   E   0.23070  0.65567  0.11034
E81   E   0.23532  0.28070  0.58070
E82   E   0.23532  0.71930  0.91930
E83   E   0.25000  0.29617  0.50000
E84   E   0.25000  0.45383  0.50000
E85   E   0.25000  0.54617  0.00000
E86   E   0.25000  0.70383  0.00000
E87   E   0.26468  0.28070  0.41930
E88   E   0.26468  0.71930  0.08070
E89   E   0.26930  0.34433  0.61034
E90   E   0.26930  0.65567  0.88966
E91   E   0.26932  0.42316  0.61032
E92   E   0.26932  0.57684  0.88968
E93   E   0.27682  0.46930  0.43148
E94   E   0.27682  0.53070  0.06852
E95   E   0.28070  0.41930  0.26468
E96   E   0.28070  0.47318  0.31852
E97   E   0.28070  0.52682  0.18148
E98   E   0.28070  0.58070  0.23532
E99   E   0.29617  0.50000  0.25000
E100  E   0.29922  0.32886  0.36284
E101  E   0.29922  0.67114  0.13716
E102  E   0.30386  0.37500  0.55386
E103  E   0.30386  0.62500  0.94614
E104  E   0.31138  0.43862  0.37500
E105  E   0.31138  0.56138  0.12500
E106  E   0.31852  0.28070  0.47318
E107  E   0.31852  0.71930  0.02682
E108  E   0.32684  0.48068  0.13968
E109  E   0.32684  0.51932  0.36032
E110  E   0.32886  0.36284  0.29922
E111  E   0.32886  0.63716  0.20078
E112  E   0.33070  0.46930  0.48532
E113  E   0.33070  0.53070  0.01468
E114  E   0.34433  0.38966  0.23070
E115  E   0.34433  0.61034  0.26930
E116  E   0.36032  0.32684  0.51932
E117  E   0.36032  0.67316  0.98068
E118  E   0.36034  0.40567  0.51930
E119  E   0.36034  0.59433  0.98070
E120  E   0.36284  0.29922  0.32886
E121  E   0.36284  0.70078  0.17114
E122  E   0.37500  0.31138  0.43862
E123  E   0.37500  0.44614  0.19614
E124  E   0.37500  0.44614  0.19614
E125  E   0.37500  0.55386  0.30386
E126  E   0.37500  0.68862  0.06138
E127  E   0.38716  0.42114  0.45078
E128  E   0.38716  0.57886  0.04922
E129  E   0.38966  0.23070  0.34433
E130  E   0.38966  0.76930  0.15567
E131  E   0.38968  0.23068  0.42316
E132  E   0.38968  0.76932  0.07684
E133  E   0.40567  0.48070  0.13966
E134  E   0.40567  0.51930  0.36034
E135  E   0.41930  0.26468  0.28070
E136  E   0.41930  0.73532  0.21930
E137  E   0.42114  0.45078  0.38716
E138  E   0.42114  0.54922  0.11284
E139  E   0.42316  0.38968  0.23068
E140  E   0.42316  0.61032  0.26932
E141  E   0.43148  0.27682  0.46930
E142  E   0.43148  0.72318  0.03070
E143  E   0.43862  0.37500  0.31138
E144  E   0.43862  0.62500  0.18862
E145  E   0.44614  0.19614  0.37500
E146  E   0.44614  0.19614  0.37500
E147  E   0.44614  0.80386  0.12500
E148  E   0.45078  0.38716  0.42114
E149  E   0.45078  0.61284  0.07886
E150  E   0.45383  0.50000  0.25000
E151  E   0.46930  0.43148  0.27682
E152  E   0.46930  0.48532  0.33070
E153  E   0.46930  0.51468  0.16930
E154  E   0.46930  0.56852  0.22318
E155  E   0.47318  0.31852  0.28070
E156  E   0.47318  0.68148  0.21930
E157  E   0.48068  0.13968  0.32684
E158  E   0.48068  0.86032  0.17316
E159  E   0.48070  0.13966  0.40567
E160  E   0.48070  0.86034  0.09433
E161  E   0.48532  0.33070  0.46930
E162  E   0.48532  0.66930  0.03070
E163  E   0.50000  0.25000  0.29617
E164  E   0.50000  0.25000  0.45383
E165  E   0.50000  0.75000  0.04617
E166  E   0.50000  0.75000  0.20383
E167  E   0.51468  0.16930  0.46930
E168  E   0.51468  0.83070  0.03070
E169  E   0.51930  0.36034  0.40567
E170  E   0.51930  0.63966  0.09433
E171  E   0.51932  0.36032  0.32684
E172  E   0.51932  0.63968  0.17316
E173  E   0.52682  0.18148  0.28070
E174  E   0.52682  0.81852  0.21930
E175  E   0.53070  0.01468  0.33070
E176  E   0.53070  0.06852  0.27682
E177  E   0.53070  0.93148  0.22318
E178  E   0.53070  0.98532  0.16930
E179  E   0.54617  0.00000  0.25000
E180  E   0.54922  0.11284  0.42114
E181  E   0.54922  0.88716  0.07886
E182  E   0.55386  0.30386  0.37500
E183  E   0.55386  0.69614  0.12500
E184  E   0.56138  0.12500  0.31138
E185  E   0.56138  0.87500  0.18862
E186  E   0.56852  0.22318  0.46930
E187  E   0.56852  0.77682  0.03070
E188  E   0.57684  0.11032  0.23068
E189  E   0.57684  0.88968  0.26932
E190  E   0.57886  0.04922  0.38716
E191  E   0.57886  0.95078  0.11284
E192  E   0.58070  0.23532  0.28070
E193  E   0.58070  0.76468  0.21930
E194  E   0.59433  0.01930  0.13966
E195  E   0.59433  0.98070  0.36034
E196  E   0.61032  0.26932  0.42316
E197  E   0.61032  0.73068  0.07684
E198  E   0.61034  0.26930  0.34433
E199  E   0.61034  0.73070  0.15567
E200  E   0.61284  0.07886  0.45078
E201  E   0.61284  0.92114  0.04922
E202  E   0.62500  0.05386  0.19614
E203  E   0.62500  0.05386  0.19614
E204  E   0.62500  0.18862  0.43862
E205  E   0.62500  0.81138  0.06138
E206  E   0.62500  0.94614  0.30386
E207  E   0.63716  0.20078  0.32886
E208  E   0.63716  0.79922  0.17114
E209  E   0.63966  0.09433  0.51930
E210  E   0.63966  0.90567  0.98070
E211  E   0.63968  0.17316  0.51932
E212  E   0.63968  0.82684  0.98068
E213  E   0.65567  0.11034  0.23070
E214  E   0.65567  0.88966  0.26930
E215  E   0.66930  0.03070  0.48532
E216  E   0.66930  0.96930  0.01468
E217  E   0.67114  0.13716  0.29922
E218  E   0.67114  0.86284  0.20078
E219  E   0.67316  0.01932  0.13968
E220  E   0.67316  0.98068  0.36032
E221  E   0.68148  0.21930  0.47318
E222  E   0.68148  0.78070  0.02682
E223  E   0.68862  0.06138  0.37500
E224  E   0.68862  0.93862  0.12500
E225  E   0.69614  0.12500  0.55386
E226  E   0.69614  0.87500  0.94614
E227  E   0.70078  0.17114  0.36284
E228  E   0.70078  0.82886  0.13716
E229  E   0.70383  0.00000  0.25000
E230  E   0.71930  0.02682  0.31852
E231  E   0.71930  0.08070  0.26468
E232  E   0.71930  0.91930  0.23532
E233  E   0.71930  0.97318  0.18148
E234  E   0.72318  0.03070  0.43148
E235  E   0.72318  0.96930  0.06852
E236  E   0.73068  0.07684  0.61032
E237  E   0.73068  0.92316  0.88968
E238  E   0.73070  0.15567  0.61034
E239  E   0.73070  0.84433  0.88966
E240  E   0.73532  0.21930  0.41930
E241  E   0.73532  0.78070  0.08070
E242  E   0.75000  0.04617  0.50000
E243  E   0.75000  0.20383  0.50000
E244  E   0.75000  0.79617  0.00000
E245  E   0.75000  0.95383  0.00000
E246  E   0.76468  0.21930  0.58070
E247  E   0.76468  0.78070  0.91930
E248  E   0.76930  0.15567  0.38966
E249  E   0.76930  0.84433  0.11034
E250  E   0.76932  0.07684  0.38968
E251  E   0.76932  0.92316  0.11032
E252  E   0.77682  0.03070  0.56852
E253  E   0.77682  0.96930  0.93148
E254  E   0.78070  0.02682  0.68148
E255  E   0.78070  0.08070  0.73532
E256  E   0.78070  0.91930  0.76468
E257  E   0.78070  0.97318  0.81852
E258  E   0.79617  0.00000  0.75000
E259  E   0.79922  0.17114  0.63716
E260  E   0.79922  0.82886  0.86284
E261  E   0.80386  0.12500  0.44614
E262  E   0.80386  0.87500  0.05386
E263  E   0.80386  0.87500  0.05386
E264  E   0.81138  0.06138  0.62500
E265  E   0.81138  0.93862  0.87500
E266  E   0.81852  0.21930  0.52682
E267  E   0.81852  0.78070  0.97318
E268  E   0.82684  0.01932  0.86032
E269  E   0.82684  0.98068  0.63968
E270  E   0.82886  0.13716  0.70078
E271  E   0.82886  0.86284  0.79922
E272  E   0.83070  0.03070  0.51468
E273  E   0.83070  0.96930  0.98532
E274  E   0.84433  0.11034  0.76930
E275  E   0.84433  0.88966  0.73070
E276  E   0.86032  0.17316  0.48068
E277  E   0.86032  0.82684  0.01932
E278  E   0.86034  0.09433  0.48070
E279  E   0.86034  0.90567  0.01930
E280  E   0.86284  0.20078  0.67114
E281  E   0.86284  0.79922  0.82886
E282  E   0.87500  0.05386  0.80386
E283  E   0.87500  0.05386  0.80386
E284  E   0.87500  0.18862  0.56138
E285  E   0.87500  0.81138  0.93862
E286  E   0.87500  0.94614  0.69614
E287  E   0.88716  0.07886  0.54922
E288  E   0.88716  0.92114  0.95078
E289  E   0.88966  0.26930  0.65567
E290  E   0.88966  0.73070  0.84433
E291  E   0.88968  0.26932  0.57684
E292  E   0.88968  0.73068  0.92316
E293  E   0.90567  0.01930  0.86034
E294  E   0.90567  0.98070  0.63966
E295  E   0.91930  0.23532  0.71930
E296  E   0.91930  0.76468  0.78070
E297  E   0.92114  0.04922  0.61284
E298  E   0.92114  0.95078  0.88716
E299  E   0.92316  0.11032  0.76932
E300  E   0.92316  0.88968  0.73068
E301  E   0.93148  0.22318  0.53070
E302  E   0.93148  0.77682  0.96930
E303  E   0.93862  0.12500  0.68862
E304  E   0.93862  0.87500  0.81138
E305  E   0.94614  0.30386  0.62500
E306  E   0.94614  0.69614  0.87500
E307  E   0.95078  0.11284  0.57886
E308  E   0.95078  0.88716  0.92114
E309  E   0.95383  0.00000  0.75000
E310  E   0.96930  0.01468  0.66930
E311  E   0.96930  0.06852  0.72318
E312  E   0.96930  0.93148  0.77682
E313  E   0.96930  0.98532  0.83070
E314  E   0.97318  0.18148  0.71930
E315  E   0.97318  0.81852  0.78070
E316  E   0.98068  0.36032  0.67316
E317  E   0.98068  0.63968  0.82684
E318  E   0.98070  0.36034  0.59433
E319  E   0.98070  0.63966  0.90567
E320  E   0.98532  0.16930  0.53070
E321  E   0.98532  0.83070  0.96930
loop_
