data_coe_I12/a1  hall_number: 107, V_con: 4, EC_con: 4
_audit_creation_date              2025-03-05
_audit_creation_method            'MOFbuilder_1.0'
_symmetry_space_group_name_H-M    'P1'
_symmetry_Int_Tables_number       1
_symmetry_cell_setting            triclinic
loop_
_symmetry_equiv_pos_as_xyz
  x,y,z
_cell_length_a                    22.496399999999998
_cell_length_b                    41.036
_cell_length_c                    23.182399999999998
_cell_angle_alpha                 90.0
_cell_angle_beta                  117.6809
_cell_angle_gamma                 90.0
loop_
_atom_site_label
_atom_site_type_symbol
_atom_site_fract_x
_atom_site_fract_y
_atom_site_fract_z
V1    V   0.07096  0.09143  0.83914
V2    V   0.07096  0.40857  0.16086
V3    V   0.42904  0.09143  0.33914
V4    V   0.42904  0.40857  0.66086
V5    V   0.57096  0.59143  0.33914
V6    V   0.57096  0.90857  0.66086
V7    V   0.92904  0.59143  0.83914
V8    V   0.92904  0.90857  0.16086
EC1    EC   0.02038  0.67616  0.01644
EC2    EC   0.02038  0.82384  0.98356
EC3    EC   0.47962  0.67616  0.51644
EC4    EC   0.47962  0.82384  0.48356
EC5    EC   0.52038  0.17616  0.51644
EC6    EC   0.52038  0.32384  0.48356
EC7    EC   0.97962  0.17616  0.01644
EC8    EC   0.97962  0.32384  0.98356
E1    E   0.00000  0.00000  0.00000
E2    E   0.00000  0.50000  0.00000
E3    E   0.02529  0.13379  0.66135
E4    E   0.02529  0.20764  0.91135
E5    E   0.02529  0.29236  0.08865
E6    E   0.02529  0.36621  0.33865
E7    E   0.20433  0.13379  0.17779
E8    E   0.20433  0.36621  0.82221
E9    E   0.25000  0.67616  0.00000
E10   E   0.25000  0.67616  0.50000
E11   E   0.25000  0.82384  0.00000
E12   E   0.25000  0.82384  0.50000
E13   E   0.29567  0.13379  0.67779
E14   E   0.29567  0.36621  0.32221
E15   E   0.47471  0.13379  0.16135
E16   E   0.47471  0.20764  0.41135
E17   E   0.47471  0.29236  0.58865
E18   E   0.47471  0.36621  0.83865
E19   E   0.50000  0.00000  0.50000
E20   E   0.50000  0.50000  0.50000
E21   E   0.52529  0.63379  0.16135
E22   E   0.52529  0.70764  0.41135
E23   E   0.52529  0.79236  0.58865
E24   E   0.52529  0.86621  0.83865
E25   E   0.70433  0.63379  0.67779
E26   E   0.70433  0.86621  0.32221
E27   E   0.75000  0.17616  0.00000
E28   E   0.75000  0.17616  0.50000
E29   E   0.75000  0.32384  0.00000
E30   E   0.75000  0.32384  0.50000
E31   E   0.79567  0.63379  0.17779
E32   E   0.79567  0.86621  0.82221
E33   E   0.97471  0.63379  0.66135
E34   E   0.97471  0.70764  0.91135
E35   E   0.97471  0.79236  0.08865
E36   E   0.97471  0.86621  0.33865
loop_
