data_crs-a_Fd-3m:2  hall_number: 526, V_con: 5
_audit_creation_date              2025-03-05
_audit_creation_method            'MOFbuilder_1.0'
_symmetry_space_group_name_H-M    'P1'
_symmetry_Int_Tables_number       1
_symmetry_cell_setting            triclinic
loop_
_symmetry_equiv_pos_as_xyz
  x,y,z
_cell_length_a                    65.99680000000001
_cell_length_b                    65.99680000000001
_cell_length_c                    65.99680000000001
_cell_angle_alpha                 90.0
_cell_angle_beta                  90.0
_cell_angle_gamma                 90.0
loop_
_atom_site_label
_atom_site_type_symbol
_atom_site_fract_x
_atom_site_fract_y
_atom_site_fract_z
V1    V   0.03571  0.32143  0.82143
V2    V   0.03571  0.42857  0.92857
V3    V   0.03571  0.82143  0.32143
V4    V   0.03571  0.92857  0.42857
V5    V   0.07143  0.07143  0.46429
V6    V   0.07143  0.17857  0.78571
V7    V   0.07143  0.28571  0.67857
V8    V   0.07143  0.46429  0.07143
V9    V   0.07143  0.57143  0.96429
V10   V   0.07143  0.67857  0.28571
V11   V   0.07143  0.78571  0.17857
V12   V   0.07143  0.96429  0.57143
V13   V   0.17857  0.07143  0.78571
V14   V   0.17857  0.17857  0.46429
V15   V   0.17857  0.28571  0.57143
V16   V   0.17857  0.46429  0.17857
V17   V   0.17857  0.57143  0.28571
V18   V   0.17857  0.67857  0.96429
V19   V   0.17857  0.78571  0.07143
V20   V   0.17857  0.96429  0.67857
V21   V   0.21429  0.32143  0.42857
V22   V   0.21429  0.42857  0.32143
V23   V   0.21429  0.82143  0.92857
V24   V   0.21429  0.92857  0.82143
V25   V   0.28571  0.07143  0.67857
V26   V   0.28571  0.17857  0.57143
V27   V   0.28571  0.57143  0.17857
V28   V   0.28571  0.67857  0.07143
V29   V   0.32143  0.03571  0.82143
V30   V   0.32143  0.21429  0.42857
V31   V   0.32143  0.32143  0.53571
V32   V   0.32143  0.42857  0.21429
V33   V   0.32143  0.53571  0.32143
V34   V   0.32143  0.71429  0.92857
V35   V   0.32143  0.82143  0.03571
V36   V   0.32143  0.92857  0.71429
V37   V   0.42857  0.03571  0.92857
V38   V   0.42857  0.21429  0.32143
V39   V   0.42857  0.32143  0.21429
V40   V   0.42857  0.42857  0.53571
V41   V   0.42857  0.53571  0.42857
V42   V   0.42857  0.71429  0.82143
V43   V   0.42857  0.82143  0.71429
V44   V   0.42857  0.92857  0.03571
V45   V   0.46429  0.07143  0.07143
V46   V   0.46429  0.17857  0.17857
V47   V   0.46429  0.57143  0.57143
V48   V   0.46429  0.67857  0.67857
V49   V   0.53571  0.32143  0.32143
V50   V   0.53571  0.42857  0.42857
V51   V   0.53571  0.82143  0.82143
V52   V   0.53571  0.92857  0.92857
V53   V   0.57143  0.07143  0.96429
V54   V   0.57143  0.17857  0.28571
V55   V   0.57143  0.28571  0.17857
V56   V   0.57143  0.46429  0.57143
V57   V   0.57143  0.57143  0.46429
V58   V   0.57143  0.67857  0.78571
V59   V   0.57143  0.78571  0.67857
V60   V   0.57143  0.96429  0.07143
V61   V   0.67857  0.07143  0.28571
V62   V   0.67857  0.17857  0.96429
V63   V   0.67857  0.28571  0.07143
V64   V   0.67857  0.46429  0.67857
V65   V   0.67857  0.57143  0.78571
V66   V   0.67857  0.67857  0.46429
V67   V   0.67857  0.78571  0.57143
V68   V   0.67857  0.96429  0.17857
V69   V   0.71429  0.32143  0.92857
V70   V   0.71429  0.42857  0.82143
V71   V   0.71429  0.82143  0.42857
V72   V   0.71429  0.92857  0.32143
V73   V   0.78571  0.07143  0.17857
V74   V   0.78571  0.17857  0.07143
V75   V   0.78571  0.57143  0.67857
V76   V   0.78571  0.67857  0.57143
V77   V   0.82143  0.03571  0.32143
V78   V   0.82143  0.21429  0.92857
V79   V   0.82143  0.32143  0.03571
V80   V   0.82143  0.42857  0.71429
V81   V   0.82143  0.53571  0.82143
V82   V   0.82143  0.71429  0.42857
V83   V   0.82143  0.82143  0.53571
V84   V   0.82143  0.92857  0.21429
V85   V   0.92857  0.03571  0.42857
V86   V   0.92857  0.21429  0.82143
V87   V   0.92857  0.32143  0.71429
V88   V   0.92857  0.42857  0.03571
V89   V   0.92857  0.53571  0.92857
V90   V   0.92857  0.71429  0.32143
V91   V   0.92857  0.82143  0.21429
V92   V   0.92857  0.92857  0.53571
V93   V   0.96429  0.07143  0.57143
V94   V   0.96429  0.17857  0.67857
V95   V   0.96429  0.57143  0.07143
V96   V   0.96429  0.67857  0.17857
E1    E   0.00000  0.05357  0.44643
E2    E   0.00000  0.05357  0.44643
E3    E   0.00000  0.19643  0.80357
E4    E   0.00000  0.19643  0.80357
E5    E   0.00000  0.30357  0.69643
E6    E   0.00000  0.44643  0.05357
E7    E   0.00000  0.44643  0.05357
E8    E   0.00000  0.55357  0.94643
E9    E   0.00000  0.69643  0.30357
E10   E   0.00000  0.80357  0.19643
E11   E   0.00000  0.80357  0.19643
E12   E   0.00000  0.94643  0.55357
E13   E   0.01786  0.01786  0.57143
E14   E   0.01786  0.07143  0.51786
E15   E   0.01786  0.17857  0.73214
E16   E   0.01786  0.23214  0.67857
E17   E   0.01786  0.51786  0.07143
E18   E   0.01786  0.57143  0.01786
E19   E   0.01786  0.67857  0.23214
E20   E   0.01786  0.73214  0.17857
E21   E   0.01786  0.01786  0.57143
E22   E   0.01786  0.07143  0.51786
E23   E   0.01786  0.17857  0.73214
E24   E   0.01786  0.23214  0.67857
E25   E   0.01786  0.51786  0.07143
E26   E   0.01786  0.57143  0.01786
E27   E   0.01786  0.67857  0.23214
E28   E   0.01786  0.73214  0.17857
E29   E   0.03571  0.37500  0.87500
E30   E   0.03571  0.87500  0.37500
E31   E   0.05357  0.00000  0.44643
E32   E   0.05357  0.25000  0.80357
E33   E   0.05357  0.30357  0.75000
E34   E   0.05357  0.44643  0.00000
E35   E   0.05357  0.50000  0.94643
E36   E   0.05357  0.75000  0.30357
E37   E   0.05357  0.80357  0.25000
E38   E   0.05357  0.94643  0.50000
E39   E   0.05357  0.00000  0.44643
E40   E   0.05357  0.25000  0.80357
E41   E   0.05357  0.30357  0.75000
E42   E   0.05357  0.44643  0.00000
E43   E   0.05357  0.50000  0.94643
E44   E   0.05357  0.75000  0.30357
E45   E   0.05357  0.80357  0.25000
E46   E   0.05357  0.94643  0.50000
E47   E   0.07143  0.01786  0.51786
E48   E   0.07143  0.01786  0.51786
E49   E   0.07143  0.23214  0.73214
E50   E   0.07143  0.51786  0.01786
E51   E   0.07143  0.51786  0.01786
E52   E   0.07143  0.73214  0.23214
E53   E   0.12500  0.12500  0.46429
E54   E   0.12500  0.12500  0.78571
E55   E   0.12500  0.28571  0.62500
E56   E   0.12500  0.46429  0.12500
E57   E   0.12500  0.62500  0.28571
E58   E   0.12500  0.62500  0.96429
E59   E   0.12500  0.78571  0.12500
E60   E   0.12500  0.96429  0.62500
E61   E   0.17857  0.01786  0.73214
E62   E   0.17857  0.01786  0.73214
E63   E   0.17857  0.23214  0.51786
E64   E   0.17857  0.51786  0.23214
E65   E   0.17857  0.73214  0.01786
E66   E   0.17857  0.73214  0.01786
E67   E   0.19643  0.00000  0.80357
E68   E   0.19643  0.25000  0.44643
E69   E   0.19643  0.30357  0.50000
E70   E   0.19643  0.44643  0.25000
E71   E   0.19643  0.50000  0.30357
E72   E   0.19643  0.75000  0.94643
E73   E   0.19643  0.80357  0.00000
E74   E   0.19643  0.94643  0.75000
E75   E   0.19643  0.00000  0.80357
E76   E   0.19643  0.25000  0.44643
E77   E   0.19643  0.30357  0.50000
E78   E   0.19643  0.44643  0.25000
E79   E   0.19643  0.50000  0.30357
E80   E   0.19643  0.75000  0.94643
E81   E   0.19643  0.80357  0.00000
E82   E   0.19643  0.94643  0.75000
E83   E   0.21429  0.37500  0.37500
E84   E   0.21429  0.87500  0.87500
E85   E   0.23214  0.01786  0.67857
E86   E   0.23214  0.01786  0.67857
E87   E   0.23214  0.07143  0.73214
E88   E   0.23214  0.17857  0.51786
E89   E   0.23214  0.23214  0.57143
E90   E   0.23214  0.51786  0.17857
E91   E   0.23214  0.57143  0.23214
E92   E   0.23214  0.67857  0.01786
E93   E   0.23214  0.67857  0.01786
E94   E   0.23214  0.73214  0.07143
E95   E   0.25000  0.05357  0.80357
E96   E   0.25000  0.05357  0.80357
E97   E   0.25000  0.19643  0.44643
E98   E   0.25000  0.19643  0.44643
E99   E   0.25000  0.30357  0.55357
E100  E   0.25000  0.44643  0.19643
E101  E   0.25000  0.44643  0.19643
E102  E   0.25000  0.55357  0.30357
E103  E   0.25000  0.69643  0.94643
E104  E   0.25000  0.80357  0.05357
E105  E   0.25000  0.80357  0.05357
E106  E   0.25000  0.94643  0.69643
E107  E   0.26786  0.26786  0.42857
E108  E   0.26786  0.32143  0.48214
E109  E   0.26786  0.42857  0.26786
E110  E   0.26786  0.48214  0.32143
E111  E   0.26786  0.76786  0.92857
E112  E   0.26786  0.82143  0.98214
E113  E   0.26786  0.92857  0.76786
E114  E   0.26786  0.98214  0.82143
E115  E   0.28571  0.12500  0.62500
E116  E   0.28571  0.62500  0.12500
E117  E   0.30357  0.00000  0.69643
E118  E   0.30357  0.05357  0.75000
E119  E   0.30357  0.05357  0.75000
E120  E   0.30357  0.19643  0.50000
E121  E   0.30357  0.19643  0.50000
E122  E   0.30357  0.25000  0.55357
E123  E   0.30357  0.50000  0.19643
E124  E   0.30357  0.50000  0.19643
E125  E   0.30357  0.55357  0.25000
E126  E   0.30357  0.69643  0.00000
E127  E   0.30357  0.75000  0.05357
E128  E   0.30357  0.75000  0.05357
E129  E   0.32143  0.26786  0.48214
E130  E   0.32143  0.48214  0.26786
E131  E   0.32143  0.76786  0.98214
E132  E   0.32143  0.98214  0.76786
E133  E   0.37500  0.03571  0.87500
E134  E   0.37500  0.21429  0.37500
E135  E   0.37500  0.37500  0.21429
E136  E   0.37500  0.37500  0.53571
E137  E   0.37500  0.53571  0.37500
E138  E   0.37500  0.71429  0.87500
E139  E   0.37500  0.87500  0.03571
E140  E   0.37500  0.87500  0.71429
E141  E   0.42857  0.26786  0.26786
E142  E   0.42857  0.48214  0.48214
E143  E   0.42857  0.76786  0.76786
E144  E   0.42857  0.98214  0.98214
E145  E   0.44643  0.00000  0.05357
E146  E   0.44643  0.00000  0.05357
E147  E   0.44643  0.05357  0.00000
E148  E   0.44643  0.05357  0.00000
E149  E   0.44643  0.19643  0.25000
E150  E   0.44643  0.19643  0.25000
E151  E   0.44643  0.25000  0.19643
E152  E   0.44643  0.25000  0.19643
E153  E   0.44643  0.50000  0.55357
E154  E   0.44643  0.55357  0.50000
E155  E   0.44643  0.69643  0.75000
E156  E   0.44643  0.75000  0.69643
E157  E   0.46429  0.12500  0.12500
E158  E   0.46429  0.62500  0.62500
E159  E   0.48214  0.26786  0.32143
E160  E   0.48214  0.32143  0.26786
E161  E   0.48214  0.42857  0.48214
E162  E   0.48214  0.48214  0.42857
E163  E   0.48214  0.76786  0.82143
E164  E   0.48214  0.82143  0.76786
E165  E   0.48214  0.92857  0.98214
E166  E   0.48214  0.98214  0.92857
E167  E   0.50000  0.05357  0.94643
E168  E   0.50000  0.05357  0.94643
E169  E   0.50000  0.19643  0.30357
E170  E   0.50000  0.19643  0.30357
E171  E   0.50000  0.30357  0.19643
E172  E   0.50000  0.30357  0.19643
E173  E   0.50000  0.44643  0.55357
E174  E   0.50000  0.55357  0.44643
E175  E   0.50000  0.69643  0.80357
E176  E   0.50000  0.80357  0.69643
E177  E   0.50000  0.94643  0.05357
E178  E   0.50000  0.94643  0.05357
E179  E   0.51786  0.01786  0.07143
E180  E   0.51786  0.01786  0.07143
E181  E   0.51786  0.07143  0.01786
E182  E   0.51786  0.07143  0.01786
E183  E   0.51786  0.17857  0.23214
E184  E   0.51786  0.23214  0.17857
E185  E   0.51786  0.51786  0.57143
E186  E   0.51786  0.57143  0.51786
E187  E   0.51786  0.67857  0.73214
E188  E   0.51786  0.73214  0.67857
E189  E   0.53571  0.37500  0.37500
E190  E   0.53571  0.87500  0.87500
E191  E   0.55357  0.00000  0.94643
E192  E   0.55357  0.25000  0.30357
E193  E   0.55357  0.30357  0.25000
E194  E   0.55357  0.44643  0.50000
E195  E   0.55357  0.50000  0.44643
E196  E   0.55357  0.75000  0.80357
E197  E   0.55357  0.80357  0.75000
E198  E   0.55357  0.94643  0.00000
E199  E   0.57143  0.01786  0.01786
E200  E   0.57143  0.01786  0.01786
E201  E   0.57143  0.23214  0.23214
E202  E   0.57143  0.51786  0.51786
E203  E   0.57143  0.73214  0.73214
E204  E   0.62500  0.12500  0.28571
E205  E   0.62500  0.12500  0.96429
E206  E   0.62500  0.28571  0.12500
E207  E   0.62500  0.46429  0.62500
E208  E   0.62500  0.62500  0.46429
E209  E   0.62500  0.62500  0.78571
E210  E   0.62500  0.78571  0.62500
E211  E   0.62500  0.96429  0.12500
E212  E   0.67857  0.01786  0.23214
E213  E   0.67857  0.01786  0.23214
E214  E   0.67857  0.23214  0.01786
E215  E   0.67857  0.23214  0.01786
E216  E   0.67857  0.51786  0.73214
E217  E   0.67857  0.73214  0.51786
E218  E   0.69643  0.00000  0.30357
E219  E   0.69643  0.25000  0.94643
E220  E   0.69643  0.30357  0.00000
E221  E   0.69643  0.44643  0.75000
E222  E   0.69643  0.50000  0.80357
E223  E   0.69643  0.75000  0.44643
E224  E   0.69643  0.80357  0.50000
E225  E   0.69643  0.94643  0.25000
E226  E   0.71429  0.37500  0.87500
E227  E   0.71429  0.87500  0.37500
E228  E   0.73214  0.01786  0.17857
E229  E   0.73214  0.01786  0.17857
E230  E   0.73214  0.07143  0.23214
E231  E   0.73214  0.17857  0.01786
E232  E   0.73214  0.17857  0.01786
E233  E   0.73214  0.23214  0.07143
E234  E   0.73214  0.51786  0.67857
E235  E   0.73214  0.57143  0.73214
E236  E   0.73214  0.67857  0.51786
E237  E   0.73214  0.73214  0.57143
E238  E   0.75000  0.05357  0.30357
E239  E   0.75000  0.05357  0.30357
E240  E   0.75000  0.19643  0.94643
E241  E   0.75000  0.19643  0.94643
E242  E   0.75000  0.30357  0.05357
E243  E   0.75000  0.30357  0.05357
E244  E   0.75000  0.44643  0.69643
E245  E   0.75000  0.55357  0.80357
E246  E   0.75000  0.69643  0.44643
E247  E   0.75000  0.80357  0.55357
E248  E   0.75000  0.94643  0.19643
E249  E   0.75000  0.94643  0.19643
E250  E   0.76786  0.26786  0.92857
E251  E   0.76786  0.32143  0.98214
E252  E   0.76786  0.42857  0.76786
E253  E   0.76786  0.48214  0.82143
E254  E   0.76786  0.76786  0.42857
E255  E   0.76786  0.82143  0.48214
E256  E   0.76786  0.92857  0.26786
E257  E   0.76786  0.98214  0.32143
E258  E   0.78571  0.12500  0.12500
E259  E   0.78571  0.62500  0.62500
E260  E   0.80357  0.00000  0.19643
E261  E   0.80357  0.00000  0.19643
E262  E   0.80357  0.05357  0.25000
E263  E   0.80357  0.05357  0.25000
E264  E   0.80357  0.19643  0.00000
E265  E   0.80357  0.19643  0.00000
E266  E   0.80357  0.25000  0.05357
E267  E   0.80357  0.25000  0.05357
E268  E   0.80357  0.50000  0.69643
E269  E   0.80357  0.55357  0.75000
E270  E   0.80357  0.69643  0.50000
E271  E   0.80357  0.75000  0.55357
E272  E   0.82143  0.26786  0.98214
E273  E   0.82143  0.48214  0.76786
E274  E   0.82143  0.76786  0.48214
E275  E   0.82143  0.98214  0.26786
E276  E   0.87500  0.03571  0.37500
E277  E   0.87500  0.21429  0.87500
E278  E   0.87500  0.37500  0.03571
E279  E   0.87500  0.37500  0.71429
E280  E   0.87500  0.53571  0.87500
E281  E   0.87500  0.71429  0.37500
E282  E   0.87500  0.87500  0.21429
E283  E   0.87500  0.87500  0.53571
E284  E   0.92857  0.26786  0.76786
E285  E   0.92857  0.48214  0.98214
E286  E   0.92857  0.76786  0.26786
E287  E   0.92857  0.98214  0.48214
E288  E   0.94643  0.00000  0.55357
E289  E   0.94643  0.05357  0.50000
E290  E   0.94643  0.05357  0.50000
E291  E   0.94643  0.19643  0.75000
E292  E   0.94643  0.19643  0.75000
E293  E   0.94643  0.25000  0.69643
E294  E   0.94643  0.50000  0.05357
E295  E   0.94643  0.50000  0.05357
E296  E   0.94643  0.55357  0.00000
E297  E   0.94643  0.69643  0.25000
E298  E   0.94643  0.75000  0.19643
E299  E   0.94643  0.75000  0.19643
E300  E   0.96429  0.12500  0.62500
E301  E   0.96429  0.62500  0.12500
E302  E   0.98214  0.26786  0.82143
E303  E   0.98214  0.32143  0.76786
E304  E   0.98214  0.42857  0.98214
E305  E   0.98214  0.48214  0.92857
E306  E   0.98214  0.76786  0.32143
E307  E   0.98214  0.82143  0.26786
E308  E   0.98214  0.92857  0.48214
E309  E   0.98214  0.98214  0.42857
loop_
