data_ctn-d_I-43d  hall_number: 516, V_con: 3, EC_con: 3
_audit_creation_date              2025-03-05
_audit_creation_method            'MOFbuilder_1.0'
_symmetry_space_group_name_H-M    'P1'
_symmetry_Int_Tables_number       1
_symmetry_cell_setting            triclinic
loop_
_symmetry_equiv_pos_as_xyz
  x,y,z
_cell_length_a                    47.114200000000004
_cell_length_b                    47.114200000000004
_cell_length_c                    47.114200000000004
_cell_angle_alpha                 90.0
_cell_angle_beta                  90.0
_cell_angle_gamma                 90.0
loop_
_atom_site_label
_atom_site_type_symbol
_atom_site_fract_x
_atom_site_fract_y
_atom_site_fract_z
V1    V   0.00000  0.25000  0.76887
V2    V   0.00000  0.25000  0.98113
V3    V   0.00000  0.75000  0.51887
V4    V   0.00000  0.75000  0.73113
V5    V   0.01887  0.50000  0.25000
V6    V   0.23113  0.50000  0.25000
V7    V   0.25000  0.01887  0.50000
V8    V   0.25000  0.23113  0.50000
V9    V   0.25000  0.76887  0.00000
V10   V   0.25000  0.98113  0.00000
V11   V   0.26887  0.50000  0.75000
V12   V   0.48113  0.50000  0.75000
V13   V   0.50000  0.25000  0.01887
V14   V   0.50000  0.25000  0.23113
V15   V   0.50000  0.75000  0.26887
V16   V   0.50000  0.75000  0.48113
V17   V   0.51887  0.00000  0.75000
V18   V   0.73113  0.00000  0.75000
V19   V   0.75000  0.26887  0.50000
V20   V   0.75000  0.48113  0.50000
V21   V   0.75000  0.51887  0.00000
V22   V   0.75000  0.73113  0.00000
V23   V   0.76887  0.00000  0.25000
V24   V   0.98113  0.00000  0.25000
EC1    EC   0.07718  0.07718  0.07718
EC2    EC   0.07718  0.92282  0.42282
EC3    EC   0.17282  0.32718  0.67282
EC4    EC   0.17282  0.67282  0.82718
EC5    EC   0.32718  0.32718  0.32718
EC6    EC   0.32718  0.67282  0.17282
EC7    EC   0.42282  0.07718  0.92282
EC8    EC   0.42282  0.92282  0.57718
EC9    EC   0.57718  0.42282  0.92282
EC10   EC   0.57718  0.57718  0.57718
EC11   EC   0.67282  0.17282  0.32718
EC12   EC   0.67282  0.82718  0.17282
EC13   EC   0.82718  0.17282  0.67282
EC14   EC   0.82718  0.82718  0.82718
EC15   EC   0.92282  0.42282  0.07718
EC16   EC   0.92282  0.57718  0.42282
E1    E   0.00000  0.25000  0.87500
E2    E   0.00000  0.75000  0.62500
E3    E   0.02915  0.03859  0.16359
E4    E   0.02915  0.96141  0.33641
E5    E   0.03859  0.16359  0.02915
E6    E   0.03859  0.83641  0.47085
E7    E   0.08641  0.28859  0.72085
E8    E   0.08641  0.71141  0.77915
E9    E   0.12500  0.50000  0.25000
E10   E   0.16359  0.02915  0.03859
E11   E   0.16359  0.97085  0.46141
E12   E   0.21141  0.27915  0.58641
E13   E   0.21141  0.72085  0.91359
E14   E   0.22085  0.41359  0.71141
E15   E   0.22085  0.58641  0.78859
E16   E   0.25000  0.12500  0.50000
E17   E   0.25000  0.87500  0.00000
E18   E   0.27915  0.41359  0.28859
E19   E   0.27915  0.58641  0.21141
E20   E   0.28859  0.27915  0.41359
E21   E   0.28859  0.72085  0.08641
E22   E   0.33641  0.02915  0.96141
E23   E   0.33641  0.97085  0.53859
E24   E   0.37500  0.50000  0.75000
E25   E   0.41359  0.28859  0.27915
E26   E   0.41359  0.71141  0.22085
E27   E   0.46141  0.16359  0.97085
E28   E   0.46141  0.83641  0.52915
E29   E   0.47085  0.03859  0.83641
E30   E   0.47085  0.96141  0.66359
E31   E   0.50000  0.25000  0.12500
E32   E   0.50000  0.75000  0.37500
E33   E   0.52915  0.46141  0.83641
E34   E   0.52915  0.53859  0.66359
E35   E   0.53859  0.33641  0.97085
E36   E   0.53859  0.66359  0.52915
E37   E   0.58641  0.21141  0.27915
E38   E   0.58641  0.78859  0.22085
E39   E   0.62500  0.00000  0.75000
E40   E   0.66359  0.47085  0.96141
E41   E   0.66359  0.52915  0.53859
E42   E   0.71141  0.22085  0.41359
E43   E   0.71141  0.77915  0.08641
E44   E   0.72085  0.08641  0.28859
E45   E   0.72085  0.91359  0.21141
E46   E   0.75000  0.37500  0.50000
E47   E   0.75000  0.62500  0.00000
E48   E   0.77915  0.08641  0.71141
E49   E   0.77915  0.91359  0.78859
E50   E   0.78859  0.22085  0.58641
E51   E   0.78859  0.77915  0.91359
E52   E   0.83641  0.47085  0.03859
E53   E   0.83641  0.52915  0.46141
E54   E   0.87500  0.00000  0.25000
E55   E   0.91359  0.21141  0.72085
E56   E   0.91359  0.78859  0.77915
E57   E   0.96141  0.33641  0.02915
E58   E   0.96141  0.66359  0.47085
E59   E   0.97085  0.46141  0.16359
E60   E   0.97085  0.53859  0.33641
loop_
