data_ctn_I-43d  hall_number: 516, V_con: 4, EC_con: 3
_audit_creation_date              2025-03-05
_audit_creation_method            'MOFbuilder_1.0'
_symmetry_space_group_name_H-M    'P1'
_symmetry_Int_Tables_number       1
_symmetry_cell_setting            triclinic
loop_
_symmetry_equiv_pos_as_xyz
  x,y,z
_cell_length_a                    37.0328
_cell_length_b                    37.0328
_cell_length_c                    37.0328
_cell_angle_alpha                 90.0
_cell_angle_beta                  90.0
_cell_angle_gamma                 90.0
loop_
_atom_site_label
_atom_site_type_symbol
_atom_site_fract_x
_atom_site_fract_y
_atom_site_fract_z
V1    V   0.00000  0.25000  0.87500
V2    V   0.00000  0.75000  0.62500
V3    V   0.12500  0.50000  0.25000
V4    V   0.25000  0.12500  0.50000
V5    V   0.25000  0.87500  0.00000
V6    V   0.37500  0.50000  0.75000
V7    V   0.50000  0.25000  0.12500
V8    V   0.50000  0.75000  0.37500
V9    V   0.62500  0.00000  0.75000
V10   V   0.75000  0.37500  0.50000
V11   V   0.75000  0.62500  0.00000
V12   V   0.87500  0.00000  0.25000
EC1    EC   0.04171  0.04171  0.04171
EC2    EC   0.04171  0.95829  0.45829
EC3    EC   0.20829  0.29171  0.70829
EC4    EC   0.20829  0.70829  0.79171
EC5    EC   0.29171  0.29171  0.29171
EC6    EC   0.29171  0.70829  0.20829
EC7    EC   0.45829  0.04171  0.95829
EC8    EC   0.45829  0.95829  0.54171
EC9    EC   0.54171  0.45829  0.95829
EC10   EC   0.54171  0.54171  0.54171
EC11   EC   0.70829  0.20829  0.29171
EC12   EC   0.70829  0.79171  0.20829
EC13   EC   0.79171  0.20829  0.70829
EC14   EC   0.79171  0.79171  0.79171
EC15   EC   0.95829  0.45829  0.04171
EC16   EC   0.95829  0.54171  0.45829
E1    E   0.02086  0.14586  0.95836
E2    E   0.02086  0.85414  0.54164
E3    E   0.04164  0.47914  0.14586
E4    E   0.04164  0.52086  0.35414
E5    E   0.10414  0.27086  0.79164
E6    E   0.10414  0.72914  0.70836
E7    E   0.14586  0.04164  0.47914
E8    E   0.14586  0.95836  0.02086
E9    E   0.20836  0.39586  0.27086
E10   E   0.20836  0.60414  0.22914
E11   E   0.22914  0.20836  0.60414
E12   E   0.22914  0.79164  0.89586
E13   E   0.27086  0.20836  0.39586
E14   E   0.27086  0.79164  0.10414
E15   E   0.29164  0.39586  0.72914
E16   E   0.29164  0.60414  0.77086
E17   E   0.35414  0.04164  0.52086
E18   E   0.35414  0.95836  0.97914
E19   E   0.39586  0.27086  0.20836
E20   E   0.39586  0.72914  0.29164
E21   E   0.45836  0.47914  0.85414
E22   E   0.45836  0.52086  0.64586
E23   E   0.47914  0.14586  0.04164
E24   E   0.47914  0.85414  0.45836
E25   E   0.52086  0.35414  0.04164
E26   E   0.52086  0.64586  0.45836
E27   E   0.54164  0.02086  0.85414
E28   E   0.54164  0.97914  0.64586
E29   E   0.60414  0.22914  0.20836
E30   E   0.60414  0.77086  0.29164
E31   E   0.64586  0.45836  0.52086
E32   E   0.64586  0.54164  0.97914
E33   E   0.70836  0.10414  0.72914
E34   E   0.70836  0.89586  0.77086
E35   E   0.72914  0.29164  0.39586
E36   E   0.72914  0.70836  0.10414
E37   E   0.77086  0.29164  0.60414
E38   E   0.77086  0.70836  0.89586
E39   E   0.79164  0.10414  0.27086
E40   E   0.79164  0.89586  0.22914
E41   E   0.85414  0.45836  0.47914
E42   E   0.85414  0.54164  0.02086
E43   E   0.89586  0.22914  0.79164
E44   E   0.89586  0.77086  0.70836
E45   E   0.95836  0.02086  0.14586
E46   E   0.95836  0.97914  0.35414
E47   E   0.97914  0.35414  0.95836
E48   E   0.97914  0.64586  0.54164
loop_
