data_dgo_P432  hall_number: 503, V_con: 8
_audit_creation_date              2025-03-05
_audit_creation_method            'MOFbuilder_1.0'
_symmetry_space_group_name_H-M    'P1'
_symmetry_Int_Tables_number       1
_symmetry_cell_setting            triclinic
loop_
_symmetry_equiv_pos_as_xyz
  x,y,z
_cell_length_a                    21.783199999999997
_cell_length_b                    21.783199999999997
_cell_length_c                    21.783199999999997
_cell_angle_alpha                 90.0
_cell_angle_beta                  90.0
_cell_angle_gamma                 90.0
loop_
_atom_site_label
_atom_site_type_symbol
_atom_site_fract_x
_atom_site_fract_y
_atom_site_fract_z
V1    V   0.19121  0.19121  0.50000
V2    V   0.19121  0.50000  0.19121
V3    V   0.19121  0.50000  0.80879
V4    V   0.19121  0.80879  0.50000
V5    V   0.50000  0.19121  0.19121
V6    V   0.50000  0.19121  0.80879
V7    V   0.50000  0.80879  0.19121
V8    V   0.50000  0.80879  0.80879
V9    V   0.80879  0.19121  0.50000
V10   V   0.80879  0.50000  0.19121
V11   V   0.80879  0.50000  0.80879
V12   V   0.80879  0.80879  0.50000
E1    E   0.00000  0.19121  0.50000
E2    E   0.00000  0.34561  0.34561
E3    E   0.00000  0.34561  0.65439
E4    E   0.00000  0.50000  0.19121
E5    E   0.00000  0.50000  0.80879
E6    E   0.00000  0.65439  0.34561
E7    E   0.00000  0.65439  0.65439
E8    E   0.00000  0.80879  0.50000
E9    E   0.19121  0.00000  0.50000
E10   E   0.19121  0.34561  0.34561
E11   E   0.19121  0.34561  0.65439
E12   E   0.19121  0.50000  0.00000
E13   E   0.19121  0.65439  0.34561
E14   E   0.19121  0.65439  0.65439
E15   E   0.34561  0.00000  0.34561
E16   E   0.34561  0.00000  0.65439
E17   E   0.34561  0.19121  0.34561
E18   E   0.34561  0.19121  0.65439
E19   E   0.34561  0.34561  0.00000
E20   E   0.34561  0.34561  0.19121
E21   E   0.34561  0.34561  0.80879
E22   E   0.34561  0.65439  0.00000
E23   E   0.34561  0.65439  0.19121
E24   E   0.34561  0.65439  0.80879
E25   E   0.34561  0.80879  0.34561
E26   E   0.34561  0.80879  0.65439
E27   E   0.50000  0.00000  0.19121
E28   E   0.50000  0.00000  0.80879
E29   E   0.50000  0.19121  0.00000
E30   E   0.50000  0.80879  0.00000
E31   E   0.65439  0.00000  0.34561
E32   E   0.65439  0.00000  0.65439
E33   E   0.65439  0.19121  0.34561
E34   E   0.65439  0.19121  0.65439
E35   E   0.65439  0.34561  0.00000
E36   E   0.65439  0.34561  0.19121
E37   E   0.65439  0.34561  0.80879
E38   E   0.65439  0.65439  0.00000
E39   E   0.65439  0.65439  0.19121
E40   E   0.65439  0.65439  0.80879
E41   E   0.65439  0.80879  0.34561
E42   E   0.65439  0.80879  0.65439
E43   E   0.80879  0.00000  0.50000
E44   E   0.80879  0.34561  0.34561
E45   E   0.80879  0.34561  0.65439
E46   E   0.80879  0.50000  0.00000
E47   E   0.80879  0.65439  0.34561
E48   E   0.80879  0.65439  0.65439
loop_
