data_dgp_I4/mmm  hall_number: 424, V_con: 8, EC_con: 8
_audit_creation_date              2025-03-05
_audit_creation_method            'MOFbuilder_1.0'
_symmetry_space_group_name_H-M    'P1'
_symmetry_Int_Tables_number       1
_symmetry_cell_setting            triclinic
loop_
_symmetry_equiv_pos_as_xyz
  x,y,z
_cell_length_a                    24.4509
_cell_length_b                    24.4509
_cell_length_c                    19.040399999999998
_cell_angle_alpha                 90.0
_cell_angle_beta                  90.0
_cell_angle_gamma                 90.0
loop_
_atom_site_label
_atom_site_type_symbol
_atom_site_fract_x
_atom_site_fract_y
_atom_site_fract_z
V1    V   0.20447  0.20447  0.00000
V2    V   0.20447  0.79553  0.00000
V3    V   0.29553  0.29553  0.50000
V4    V   0.29553  0.70447  0.50000
V5    V   0.70447  0.29553  0.50000
V6    V   0.70447  0.70447  0.50000
V7    V   0.79553  0.20447  0.00000
V8    V   0.79553  0.79553  0.00000
EC1    EC   0.00000  0.50000  0.25000
EC2    EC   0.00000  0.50000  0.75000
EC3    EC   0.50000  0.00000  0.25000
EC4    EC   0.50000  0.00000  0.75000
E1    E   0.00000  0.20447  0.00000
E2    E   0.00000  0.79553  0.00000
E3    E   0.10224  0.35224  0.12500
E4    E   0.10224  0.35224  0.87500
E5    E   0.10224  0.64776  0.12500
E6    E   0.10224  0.64776  0.87500
E7    E   0.14776  0.39776  0.37500
E8    E   0.14776  0.39776  0.62500
E9    E   0.14776  0.60224  0.37500
E10   E   0.14776  0.60224  0.62500
E11   E   0.20447  0.00000  0.00000
E12   E   0.25000  0.25000  0.25000
E13   E   0.25000  0.25000  0.75000
E14   E   0.25000  0.75000  0.25000
E15   E   0.25000  0.75000  0.75000
E16   E   0.29553  0.50000  0.50000
E17   E   0.35224  0.10224  0.12500
E18   E   0.35224  0.10224  0.87500
E19   E   0.35224  0.89776  0.12500
E20   E   0.35224  0.89776  0.87500
E21   E   0.39776  0.14776  0.37500
E22   E   0.39776  0.14776  0.62500
E23   E   0.39776  0.85224  0.37500
E24   E   0.39776  0.85224  0.62500
E25   E   0.50000  0.29553  0.50000
E26   E   0.50000  0.70447  0.50000
E27   E   0.60224  0.14776  0.37500
E28   E   0.60224  0.14776  0.62500
E29   E   0.60224  0.85224  0.37500
E30   E   0.60224  0.85224  0.62500
E31   E   0.64776  0.10224  0.12500
E32   E   0.64776  0.10224  0.87500
E33   E   0.64776  0.89776  0.12500
E34   E   0.64776  0.89776  0.87500
E35   E   0.70447  0.50000  0.50000
E36   E   0.75000  0.25000  0.25000
E37   E   0.75000  0.25000  0.75000
E38   E   0.75000  0.75000  0.25000
E39   E   0.75000  0.75000  0.75000
E40   E   0.79553  0.00000  0.00000
E41   E   0.85224  0.39776  0.37500
E42   E   0.85224  0.39776  0.62500
E43   E   0.85224  0.60224  0.37500
E44   E   0.85224  0.60224  0.62500
E45   E   0.89776  0.35224  0.12500
E46   E   0.89776  0.35224  0.87500
E47   E   0.89776  0.64776  0.12500
E48   E   0.89776  0.64776  0.87500
loop_
