data_dma_I12/a1  hall_number: 107, V_con: 3, EC_con: 3
_audit_creation_date              2025-03-05
_audit_creation_method            'MOFbuilder_1.0'
_symmetry_space_group_name_H-M    'P1'
_symmetry_Int_Tables_number       1
_symmetry_cell_setting            triclinic
loop_
_symmetry_equiv_pos_as_xyz
  x,y,z
_cell_length_a                    27.4078
_cell_length_b                    57.366400000000006
_cell_length_c                    35.7843
_cell_angle_alpha                 90.0
_cell_angle_beta                  108.6591
_cell_angle_gamma                 90.0
loop_
_atom_site_label
_atom_site_type_symbol
_atom_site_fract_x
_atom_site_fract_y
_atom_site_fract_z
V1    V   0.05926  0.07865  0.47237
V2    V   0.05926  0.42135  0.52763
V3    V   0.44074  0.07865  0.97237
V4    V   0.44074  0.42135  0.02763
V5    V   0.55926  0.57865  0.97237
V6    V   0.55926  0.92135  0.02763
V7    V   0.94074  0.57865  0.47237
V8    V   0.94074  0.92135  0.52763
EC1    EC   0.19991  0.70608  0.12264
EC2    EC   0.19991  0.79392  0.87736
EC3    EC   0.30009  0.70608  0.62264
EC4    EC   0.30009  0.79392  0.37736
EC5    EC   0.69991  0.20608  0.62264
EC6    EC   0.69991  0.29392  0.37736
EC7    EC   0.80009  0.20608  0.12264
EC8    EC   0.80009  0.29392  0.87736
E1    E   0.00000  0.00000  0.50000
E2    E   0.00000  0.50000  0.50000
E3    E   0.07033  0.64236  0.42486
E4    E   0.07033  0.85764  0.57514
E5    E   0.25000  0.07865  0.00000
E6    E   0.25000  0.07865  0.50000
E7    E   0.25000  0.42135  0.00000
E8    E   0.25000  0.42135  0.50000
E9    E   0.25000  0.70608  0.00000
E10   E   0.25000  0.70608  0.50000
E11   E   0.25000  0.75000  0.25000
E12   E   0.25000  0.75000  0.75000
E13   E   0.25000  0.79392  0.00000
E14   E   0.25000  0.79392  0.50000
E15   E   0.42967  0.64236  0.92486
E16   E   0.42967  0.85764  0.07514
E17   E   0.50000  0.00000  0.00000
E18   E   0.50000  0.50000  0.00000
E19   E   0.57033  0.14236  0.92486
E20   E   0.57033  0.35764  0.07514
E21   E   0.75000  0.20608  0.00000
E22   E   0.75000  0.20608  0.50000
E23   E   0.75000  0.25000  0.25000
E24   E   0.75000  0.25000  0.75000
E25   E   0.75000  0.29392  0.00000
E26   E   0.75000  0.29392  0.50000
E27   E   0.75000  0.57865  0.00000
E28   E   0.75000  0.57865  0.50000
E29   E   0.75000  0.92135  0.00000
E30   E   0.75000  0.92135  0.50000
E31   E   0.92967  0.14236  0.42486
E32   E   0.92967  0.35764  0.57514
loop_
