data_dmb_P4122  hall_number: 368, V_con: 3, EC_con: 3
_audit_creation_date              2025-03-05
_audit_creation_method            'MOFbuilder_1.0'
_symmetry_space_group_name_H-M    'P1'
_symmetry_Int_Tables_number       1
_symmetry_cell_setting            triclinic
loop_
_symmetry_equiv_pos_as_xyz
  x,y,z
_cell_length_a                    31.192500000000003
_cell_length_b                    31.192500000000003
_cell_length_c                    49.3225
_cell_angle_alpha                 90.0
_cell_angle_beta                  90.0
_cell_angle_gamma                 90.0
loop_
_atom_site_label
_atom_site_type_symbol
_atom_site_fract_x
_atom_site_fract_y
_atom_site_fract_z
V1    V   0.30865  0.39409  0.67390
V2    V   0.30865  0.60591  0.82610
V3    V   0.39409  0.30865  0.07610
V4    V   0.39409  0.69135  0.42390
V5    V   0.60591  0.30865  0.92390
V6    V   0.60591  0.69135  0.57610
V7    V   0.69135  0.39409  0.32610
V8    V   0.69135  0.60591  0.17390
EC1    EC   0.15641  0.45745  0.97783
EC2    EC   0.15641  0.54255  0.52217
EC3    EC   0.45745  0.15641  0.77217
EC4    EC   0.45745  0.84359  0.72783
EC5    EC   0.54255  0.15641  0.22783
EC6    EC   0.54255  0.84359  0.27217
EC7    EC   0.84359  0.45745  0.02217
EC8    EC   0.84359  0.54255  0.47783
E1    E   0.00000  0.45745  0.00000
E2    E   0.00000  0.54255  0.50000
E3    E   0.23253  0.46832  0.59804
E4    E   0.23253  0.53168  0.90196
E5    E   0.27525  0.38305  0.02696
E6    E   0.27525  0.61695  0.47304
E7    E   0.30865  0.50000  0.75000
E8    E   0.38305  0.27525  0.72304
E9    E   0.38305  0.72475  0.77696
E10   E   0.45745  0.00000  0.75000
E11   E   0.46832  0.23253  0.15196
E12   E   0.46832  0.76747  0.34804
E13   E   0.50000  0.30865  0.00000
E14   E   0.50000  0.69135  0.50000
E15   E   0.53168  0.23253  0.84804
E16   E   0.53168  0.76747  0.65196
E17   E   0.54255  0.00000  0.25000
E18   E   0.61695  0.27525  0.27696
E19   E   0.61695  0.72475  0.22304
E20   E   0.69135  0.50000  0.25000
E21   E   0.72475  0.38305  0.97304
E22   E   0.72475  0.61695  0.52696
E23   E   0.76747  0.46832  0.40196
E24   E   0.76747  0.53168  0.09804
loop_
