data_dmc_P121/n1  hall_number: 89, V_con: 4, EC_con: 3
_audit_creation_date              2025-03-05
_audit_creation_method            'MOFbuilder_1.0'
_symmetry_space_group_name_H-M    'P1'
_symmetry_Int_Tables_number       1
_symmetry_cell_setting            triclinic
loop_
_symmetry_equiv_pos_as_xyz
  x,y,z
_cell_length_a                    21.3355
_cell_length_b                    27.9208
_cell_length_c                    29.586299999999998
_cell_angle_alpha                 90.0
_cell_angle_beta                  107.6818
_cell_angle_gamma                 90.0
loop_
_atom_site_label
_atom_site_type_symbol
_atom_site_fract_x
_atom_site_fract_y
_atom_site_fract_z
V1    V   0.16610  0.06870  0.07007
V2    V   0.33390  0.06870  0.57007
V3    V   0.66610  0.93130  0.42993
V4    V   0.83390  0.93130  0.92993
EC1    EC   0.07254  0.32125  0.32144
EC2    EC   0.42746  0.32125  0.82144
EC3    EC   0.57254  0.67875  0.17856
EC4    EC   0.92746  0.67875  0.67856
E1    E   0.00000  0.00000  0.00000
E2    E   0.11932  0.19497  0.19576
E3    E   0.13068  0.12372  0.44576
E4    E   0.20322  0.94497  0.62432
E5    E   0.29678  0.94497  0.12432
E6    E   0.36932  0.12372  0.94576
E7    E   0.38068  0.19497  0.69576
E8    E   0.50000  0.00000  0.50000
E9    E   0.61932  0.80503  0.30424
E10   E   0.63068  0.87628  0.05424
E11   E   0.70322  0.05503  0.87568
E12   E   0.79678  0.05503  0.37568
E13   E   0.86932  0.87628  0.55424
E14   E   0.88068  0.80503  0.80424
loop_
