data_dmd_P42/mmc  hall_number: 412, V_con: 4, EC_con: 3
_audit_creation_date              2025-03-05
_audit_creation_method            'MOFbuilder_1.0'
_symmetry_space_group_name_H-M    'P1'
_symmetry_Int_Tables_number       1
_symmetry_cell_setting            triclinic
loop_
_symmetry_equiv_pos_as_xyz
  x,y,z
_cell_length_a                    24.717799999999997
_cell_length_b                    24.717799999999997
_cell_length_c                    27.084000000000003
_cell_angle_alpha                 90.0
_cell_angle_beta                  90.0
_cell_angle_gamma                 90.0
loop_
_atom_site_label
_atom_site_type_symbol
_atom_site_fract_x
_atom_site_fract_y
_atom_site_fract_z
V1    V   0.00000  0.00000  0.25000
V2    V   0.00000  0.00000  0.75000
EC1    EC   0.00000  0.29772  0.50000
EC2    EC   0.00000  0.70228  0.50000
EC3    EC   0.29772  0.00000  0.00000
EC4    EC   0.70228  0.00000  0.00000
E1    E   0.00000  0.14886  0.37500
E2    E   0.00000  0.14886  0.62500
E3    E   0.00000  0.50000  0.50000
E4    E   0.00000  0.85114  0.37500
E5    E   0.00000  0.85114  0.62500
E6    E   0.14886  0.00000  0.12500
E7    E   0.14886  0.00000  0.87500
E8    E   0.50000  0.00000  0.00000
E9    E   0.85114  0.00000  0.12500
E10   E   0.85114  0.00000  0.87500
loop_
