data_dmf_C222  hall_number: 119, V_con: 4, EC_con: 3
_audit_creation_date              2025-03-05
_audit_creation_method            'MOFbuilder_1.0'
_symmetry_space_group_name_H-M    'P1'
_symmetry_Int_Tables_number       1
_symmetry_cell_setting            triclinic
loop_
_symmetry_equiv_pos_as_xyz
  x,y,z
_cell_length_a                    41.6412
_cell_length_b                    18.7623
_cell_length_c                    18.952199999999998
_cell_angle_alpha                 90.0
_cell_angle_beta                  90.0
_cell_angle_gamma                 90.0
loop_
_atom_site_label
_atom_site_type_symbol
_atom_site_fract_x
_atom_site_fract_y
_atom_site_fract_z
V1    V   0.00000  0.00000  0.00000
V2    V   0.50000  0.50000  0.00000
EC1    EC   0.13218  0.30141  0.67592
EC2    EC   0.13218  0.69859  0.32408
EC3    EC   0.36782  0.19859  0.67592
EC4    EC   0.36782  0.80141  0.32408
EC5    EC   0.63218  0.19859  0.32408
EC6    EC   0.63218  0.80141  0.67592
EC7    EC   0.86782  0.30141  0.32408
EC8    EC   0.86782  0.69859  0.67592
E1    E   0.06609  0.15070  0.83796
E2    E   0.06609  0.84930  0.16204
E3    E   0.13218  0.50000  0.50000
E4    E   0.25000  0.25000  0.67592
E5    E   0.25000  0.75000  0.32408
E6    E   0.36782  0.00000  0.50000
E7    E   0.43391  0.34930  0.83796
E8    E   0.43391  0.65070  0.16204
E9    E   0.56609  0.34930  0.16204
E10   E   0.56609  0.65070  0.83796
E11   E   0.63218  0.00000  0.50000
E12   E   0.75000  0.25000  0.32408
E13   E   0.75000  0.75000  0.67592
E14   E   0.86782  0.50000  0.50000
E15   E   0.93391  0.15070  0.16204
E16   E   0.93391  0.84930  0.83796
loop_
