data_dmj_P6522  hall_number: 473, V_con: 7, EC_con: 5
_audit_creation_date              2025-03-05
_audit_creation_method            'MOFbuilder_1.0'
_symmetry_space_group_name_H-M    'P1'
_symmetry_Int_Tables_number       1
_symmetry_cell_setting            triclinic
loop_
_symmetry_equiv_pos_as_xyz
  x,y,z
_cell_length_a                    36.112
_cell_length_b                    36.112
_cell_length_c                    19.5569
_cell_angle_alpha                 90.0
_cell_angle_beta                  90.0
_cell_angle_gamma                 120.0
loop_
_atom_site_label
_atom_site_type_symbol
_atom_site_fract_x
_atom_site_fract_y
_atom_site_fract_z
V1    V   0.19334  0.59667  0.41667
V2    V   0.40333  0.59667  0.08333
V3    V   0.40333  0.80666  0.75000
V4    V   0.40333  0.59667  0.08333
V5    V   0.40333  0.80666  0.75000
V6    V   0.59667  0.19334  0.25000
V7    V   0.59667  0.40333  0.58333
V8    V   0.59667  0.40333  0.58333
V9    V   0.80666  0.40333  0.91667
V10   V   0.80666  0.40333  0.91667
EC1    EC   0.12642  0.56321  0.91666
EC2    EC   0.12642  0.56321  0.91667
EC3    EC   0.43679  0.56321  0.58333
EC4    EC   0.43679  0.56321  0.58334
EC5    EC   0.43679  0.87358  0.25000
EC6    EC   0.43679  0.87358  0.25000
EC7    EC   0.56321  0.12642  0.75000
EC8    EC   0.56321  0.12642  0.75000
EC9    EC   0.56321  0.43679  0.08333
EC10   EC   0.56321  0.43679  0.08334
EC11   EC   0.87358  0.43679  0.41666
EC12   EC   0.87358  0.43679  0.41667
E1    E   0.03346  0.51673  0.41667
E2    E   0.03346  0.51673  0.41667
E3    E   0.15988  0.57994  0.16667
E4    E   0.15988  0.57994  0.66667
E5    E   0.26487  0.57994  0.00000
E6    E   0.26487  0.68493  0.83333
E7    E   0.29833  0.59666  0.25000
E8    E   0.29833  0.59666  0.25000
E9    E   0.29833  0.70167  0.58333
E10   E   0.29833  0.70167  0.58334
E11   E   0.31507  0.57994  0.50000
E12   E   0.31507  0.73513  0.33334
E13   E   0.40334  0.70167  0.91666
E14   E   0.40334  0.70167  0.91667
E15   E   0.42006  0.57994  0.33333
E16   E   0.42006  0.57994  0.83333
E17   E   0.42006  0.68493  0.66667
E18   E   0.42006  0.73513  0.16666
E19   E   0.42006  0.84012  0.00000
E20   E   0.42006  0.84012  0.50000
E21   E   0.48327  0.51673  0.08333
E22   E   0.48327  0.96654  0.75000
E23   E   0.48327  0.51673  0.08333
E24   E   0.48327  0.96654  0.75000
E25   E   0.51673  0.03346  0.25000
E26   E   0.51673  0.48327  0.58333
E27   E   0.51673  0.03346  0.25000
E28   E   0.51673  0.48327  0.58333
E29   E   0.57994  0.15988  0.00000
E30   E   0.57994  0.15988  0.50000
E31   E   0.57994  0.26487  0.66666
E32   E   0.57994  0.31507  0.16667
E33   E   0.57994  0.42006  0.33333
E34   E   0.57994  0.42006  0.83333
E35   E   0.59666  0.29833  0.41666
E36   E   0.59666  0.29833  0.41667
E37   E   0.68493  0.26487  0.83334
E38   E   0.68493  0.42006  1.00000
E39   E   0.70167  0.29833  0.08333
E40   E   0.70167  0.29833  0.08334
E41   E   0.70167  0.40334  0.75000
E42   E   0.70167  0.40334  0.75000
E43   E   0.73513  0.31507  0.33333
E44   E   0.73513  0.42006  0.50000
E45   E   0.84012  0.42006  0.16667
E46   E   0.84012  0.42006  0.66667
E47   E   0.96654  0.48327  0.91667
E48   E   0.96654  0.48327  0.91667
loop_
