data_eab_P63/mmc  hall_number: 488, V_con: 4, EC_con: 4
_audit_creation_date              2025-03-05
_audit_creation_method            'MOFbuilder_1.0'
_symmetry_space_group_name_H-M    'P1'
_symmetry_Int_Tables_number       1
_symmetry_cell_setting            triclinic
loop_
_symmetry_equiv_pos_as_xyz
  x,y,z
_cell_length_a                    42.195299999999996
_cell_length_b                    42.195299999999996
_cell_length_c                    48.4044
_cell_angle_alpha                 90.0
_cell_angle_beta                  90.0
_cell_angle_gamma                 120.0
loop_
_atom_site_label
_atom_site_type_symbol
_atom_site_fract_x
_atom_site_fract_y
_atom_site_fract_z
V1    V   0.09634  0.42967  0.14670
V2    V   0.09634  0.42967  0.35330
V3    V   0.09634  0.66667  0.14670
V4    V   0.09634  0.66667  0.35330
V5    V   0.33333  0.42967  0.14670
V6    V   0.33333  0.42967  0.35330
V7    V   0.33333  0.90366  0.14670
V8    V   0.33333  0.90366  0.35330
V9    V   0.42967  0.09634  0.64670
V10   V   0.42967  0.09634  0.85330
V11   V   0.42967  0.33333  0.64670
V12   V   0.42967  0.33333  0.85330
V13   V   0.57033  0.66667  0.14670
V14   V   0.57033  0.66667  0.35330
V15   V   0.57033  0.90366  0.14670
V16   V   0.57033  0.90366  0.35330
V17   V   0.66667  0.09634  0.64670
V18   V   0.66667  0.09634  0.85330
V19   V   0.66667  0.57033  0.64670
V20   V   0.66667  0.57033  0.85330
V21   V   0.90366  0.33333  0.64670
V22   V   0.90366  0.33333  0.85330
V23   V   0.90366  0.57033  0.64670
V24   V   0.90366  0.57033  0.85330
EC1    EC   0.00000  0.23700  0.00000
EC2    EC   0.00000  0.23700  0.50000
EC3    EC   0.00000  0.76300  0.00000
EC4    EC   0.00000  0.76300  0.50000
EC5    EC   0.23700  0.00000  0.00000
EC6    EC   0.23700  0.00000  0.50000
EC7    EC   0.23700  0.23700  0.00000
EC8    EC   0.23700  0.23700  0.50000
EC9    EC   0.76300  0.00000  0.00000
EC10   EC   0.76300  0.00000  0.50000
EC11   EC   0.76300  0.76300  0.00000
EC12   EC   0.76300  0.76300  0.50000
E1    E   0.04817  0.33333  0.07335
E2    E   0.04817  0.33333  0.42665
E3    E   0.04817  0.71484  0.07335
E4    E   0.04817  0.71484  0.42665
E5    E   0.09634  0.42967  0.25000
E6    E   0.09634  0.54817  0.14670
E7    E   0.09634  0.54817  0.35330
E8    E   0.09634  0.54817  0.14670
E9    E   0.09634  0.54817  0.35330
E10   E   0.09634  0.66667  0.25000
E11   E   0.11850  0.23700  0.00000
E12   E   0.11850  0.23700  0.50000
E13   E   0.11850  0.88150  0.00000
E14   E   0.11850  0.88150  0.50000
E15   E   0.21483  0.42967  0.14670
E16   E   0.21483  0.42967  0.35330
E17   E   0.21483  0.78516  0.14670
E18   E   0.21483  0.78516  0.35330
E19   E   0.21484  0.42967  0.14670
E20   E   0.21484  0.42967  0.35330
E21   E   0.21484  0.78517  0.14670
E22   E   0.21484  0.78517  0.35330
E23   E   0.23700  0.11850  0.00000
E24   E   0.23700  0.11850  0.50000
E25   E   0.28516  0.33333  0.07335
E26   E   0.28516  0.33333  0.42665
E27   E   0.28516  0.95183  0.07335
E28   E   0.28516  0.95183  0.42665
E29   E   0.33333  0.04817  0.57335
E30   E   0.33333  0.04817  0.92665
E31   E   0.33333  0.28516  0.57335
E32   E   0.33333  0.28516  0.92665
E33   E   0.33333  0.42967  0.25000
E34   E   0.33333  0.90366  0.25000
E35   E   0.42967  0.09634  0.75000
E36   E   0.42967  0.21483  0.64670
E37   E   0.42967  0.21483  0.85330
E38   E   0.42967  0.21484  0.64670
E39   E   0.42967  0.21484  0.85330
E40   E   0.42967  0.33333  0.75000
E41   E   0.45183  0.54817  0.14670
E42   E   0.45183  0.54817  0.35330
E43   E   0.45183  0.90366  0.14670
E44   E   0.45183  0.90366  0.35330
E45   E   0.45183  0.54817  0.14670
E46   E   0.45183  0.54817  0.35330
E47   E   0.45183  0.90366  0.14670
E48   E   0.45183  0.90366  0.35330
E49   E   0.54817  0.09634  0.64670
E50   E   0.54817  0.09634  0.85330
E51   E   0.54817  0.45183  0.64670
E52   E   0.54817  0.45183  0.85330
E53   E   0.54817  0.09634  0.64670
E54   E   0.54817  0.09634  0.85330
E55   E   0.54817  0.45183  0.64670
E56   E   0.54817  0.45183  0.85330
E57   E   0.57033  0.66667  0.25000
E58   E   0.57033  0.78516  0.14670
E59   E   0.57033  0.78516  0.35330
E60   E   0.57033  0.78517  0.14670
E61   E   0.57033  0.78517  0.35330
E62   E   0.57033  0.90366  0.25000
E63   E   0.66667  0.09634  0.75000
E64   E   0.66667  0.57033  0.75000
E65   E   0.66667  0.71484  0.07335
E66   E   0.66667  0.71484  0.42665
E67   E   0.66667  0.95183  0.07335
E68   E   0.66667  0.95183  0.42665
E69   E   0.71484  0.04817  0.57335
E70   E   0.71484  0.04817  0.92665
E71   E   0.71484  0.66667  0.57335
E72   E   0.71484  0.66667  0.92665
E73   E   0.76300  0.88150  0.00000
E74   E   0.76300  0.88150  0.50000
E75   E   0.78516  0.21483  0.64670
E76   E   0.78516  0.21483  0.85330
E77   E   0.78516  0.57033  0.64670
E78   E   0.78516  0.57033  0.85330
E79   E   0.78517  0.21484  0.64670
E80   E   0.78517  0.21484  0.85330
E81   E   0.78517  0.57033  0.64670
E82   E   0.78517  0.57033  0.85330
E83   E   0.88150  0.11850  0.00000
E84   E   0.88150  0.11850  0.50000
E85   E   0.88150  0.76300  0.00000
E86   E   0.88150  0.76300  0.50000
E87   E   0.90366  0.33333  0.75000
E88   E   0.90366  0.45183  0.64670
E89   E   0.90366  0.45183  0.85330
E90   E   0.90366  0.45183  0.64670
E91   E   0.90366  0.45183  0.85330
E92   E   0.90366  0.57033  0.75000
E93   E   0.95183  0.28516  0.57335
E94   E   0.95183  0.28516  0.92665
E95   E   0.95183  0.66667  0.57335
E96   E   0.95183  0.66667  0.92665
loop_
