data_ecd_R-3c:H  hall_number: 167, V_con: 8
_audit_creation_date              2025-03-05
_audit_creation_method            'MOFbuilder_1.0'
_symmetry_space_group_name_H-M    'P1'
_symmetry_Int_Tables_number       1
_symmetry_cell_setting            triclinic
loop_
_symmetry_equiv_pos_as_xyz
  x,y,z
_cell_length_a                    32.547799999999995
_cell_length_b                    32.547799999999995
_cell_length_c                    19.557100000000002
_cell_angle_alpha                 90.0
_cell_angle_beta                  90.0
_cell_angle_gamma                 120.0
loop_
_atom_site_label
_atom_site_type_symbol
_atom_site_fract_x
_atom_site_fract_y
_atom_site_fract_z
V1    V   0.00000  0.53215  0.25000
V2    V   0.00000  0.96785  0.75000
V3    V   0.50000  0.03215  0.25000
V4    V   0.50000  0.46785  0.75000
E1    E   0.00000  0.00000  0.50000
E2    E   0.00000  0.50000  0.00000
E3    E   0.06726  0.06726  0.66667
E4    E   0.06726  0.43274  0.16667
E5    E   0.06726  0.66667  0.41667
E6    E   0.06726  0.83333  0.91667
E7    E   0.50000  0.00000  0.50000
E8    E   0.50000  0.50000  0.00000
E9    E   0.56726  0.16667  0.08333
E10   E   0.56726  0.33333  0.58333
E11   E   0.56726  0.56726  0.83333
E12   E   0.56726  0.93274  0.33333
loop_
