data_ece_P6122  hall_number: 472, V_con: 8
_audit_creation_date              2025-03-05
_audit_creation_method            'MOFbuilder_1.0'
_symmetry_space_group_name_H-M    'P1'
_symmetry_Int_Tables_number       1
_symmetry_cell_setting            triclinic
loop_
_symmetry_equiv_pos_as_xyz
  x,y,z
_cell_length_a                    18.7916
_cell_length_b                    18.7916
_cell_length_c                    19.556800000000003
_cell_angle_alpha                 90.0
_cell_angle_beta                  90.0
_cell_angle_gamma                 120.0
loop_
_atom_site_label
_atom_site_type_symbol
_atom_site_fract_x
_atom_site_fract_y
_atom_site_fract_z
V1    V   0.06431  0.53215  0.08333
V2    V   0.06431  0.53216  0.08334
V3    V   0.46784  0.53215  0.41667
V4    V   0.46784  0.93569  0.75000
V5    V   0.46785  0.53216  0.41666
V6    V   0.46785  0.93569  0.75000
V7    V   0.53215  0.06431  0.25000
V8    V   0.53215  0.46784  0.91666
V9    V   0.53216  0.06431  0.25000
V10   V   0.53216  0.46785  0.91667
V11   V   0.93569  0.46784  0.58334
V12   V   0.93569  0.46785  0.58333
E1    E   0.00000  0.50000  0.33333
E2    E   0.00000  0.50000  0.33334
E3    E   0.00000  0.50000  0.83333
E4    E   0.00000  0.50000  0.83334
E5    E   0.20177  0.50000  0.50000
E6    E   0.20177  0.70177  0.66667
E7    E   0.26607  0.53215  0.25000
E8    E   0.26607  0.73392  0.91667
E9    E   0.26608  0.53215  0.25000
E10   E   0.26608  0.73393  0.91667
E11   E   0.29823  0.50000  0.00000
E12   E   0.29823  0.79823  0.16667
E13   E   0.46785  0.73392  0.58333
E14   E   0.46785  0.73393  0.58333
E15   E   0.50000  0.00000  0.00000
E16   E   0.50000  0.00000  0.50000
E17   E   0.50000  0.00000  0.50000
E18   E   0.50000  0.00000  1.00000
E19   E   0.50000  0.20177  0.83333
E20   E   0.50000  0.29823  0.33333
E21   E   0.50000  0.50000  0.16666
E22   E   0.50000  0.50000  0.16667
E23   E   0.50000  0.50000  0.66666
E24   E   0.50000  0.50000  0.66667
E25   E   0.50000  0.70177  0.83333
E26   E   0.50000  0.79823  0.33333
E27   E   0.53215  0.26607  0.08333
E28   E   0.53215  0.26608  0.08333
E29   E   0.70177  0.20177  0.66667
E30   E   0.70177  0.50000  0.50000
E31   E   0.73392  0.26607  0.41667
E32   E   0.73392  0.46785  0.75000
E33   E   0.73393  0.26608  0.41667
E34   E   0.73393  0.46785  0.75000
E35   E   0.79823  0.29823  0.16667
E36   E   0.79823  0.50000  0.00000
loop_
