data_ecf_P63/mmc  hall_number: 488, V_con: 8
_audit_creation_date              2025-03-05
_audit_creation_method            'MOFbuilder_1.0'
_symmetry_space_group_name_H-M    'P1'
_symmetry_Int_Tables_number       1
_symmetry_cell_setting            triclinic
loop_
_symmetry_equiv_pos_as_xyz
  x,y,z
_cell_length_a                    20.0001
_cell_length_b                    20.0001
_cell_length_c                    16.329800000000002
_cell_angle_alpha                 90.0
_cell_angle_beta                  90.0
_cell_angle_gamma                 120.0
loop_
_atom_site_label
_atom_site_type_symbol
_atom_site_fract_x
_atom_site_fract_y
_atom_site_fract_z
V1    V   0.16666  0.33333  0.25000
V2    V   0.16666  0.83333  0.25000
V3    V   0.16667  0.33333  0.25000
V4    V   0.16667  0.83334  0.25000
V5    V   0.33333  0.16666  0.75000
V6    V   0.33333  0.16667  0.75000
V7    V   0.66667  0.83333  0.25000
V8    V   0.66667  0.83334  0.25000
V9    V   0.83333  0.16666  0.75000
V10   V   0.83333  0.66667  0.75000
V11   V   0.83334  0.16667  0.75000
V12   V   0.83334  0.66667  0.75000
E1    E   0.00000  0.25000  0.00000
E2    E   0.00000  0.25000  0.50000
E3    E   0.00000  0.75000  0.00000
E4    E   0.00000  0.75000  0.50000
E5    E   0.08333  0.16667  0.75000
E6    E   0.08333  0.91666  0.75000
E7    E   0.08334  0.16667  0.75000
E8    E   0.08334  0.91667  0.75000
E9    E   0.16667  0.08333  0.25000
E10   E   0.16667  0.08334  0.25000
E11   E   0.16667  0.58333  0.25000
E12   E   0.16667  0.58334  0.25000
E13   E   0.25000  0.00000  0.00000
E14   E   0.25000  0.00000  0.50000
E15   E   0.25000  0.25000  0.00000
E16   E   0.25000  0.25000  0.50000
E17   E   0.41666  0.58333  0.25000
E18   E   0.41666  0.83333  0.25000
E19   E   0.41667  0.58334  0.25000
E20   E   0.41667  0.83333  0.25000
E21   E   0.58333  0.16667  0.75000
E22   E   0.58333  0.41666  0.75000
E23   E   0.58334  0.16667  0.75000
E24   E   0.58334  0.41667  0.75000
E25   E   0.75000  0.00000  0.00000
E26   E   0.75000  0.00000  0.50000
E27   E   0.75000  0.75000  0.00000
E28   E   0.75000  0.75000  0.50000
E29   E   0.83333  0.41666  0.75000
E30   E   0.83333  0.41667  0.75000
E31   E   0.83333  0.91666  0.75000
E32   E   0.83333  0.91667  0.75000
E33   E   0.91666  0.08333  0.25000
E34   E   0.91666  0.83333  0.25000
E35   E   0.91667  0.08334  0.25000
E36   E   0.91667  0.83333  0.25000
loop_
