data_eco_R-3:H  hall_number: 148, V_con: 8
_audit_creation_date              2025-03-05
_audit_creation_method            'MOFbuilder_1.0'
_symmetry_space_group_name_H-M    'P1'
_symmetry_Int_Tables_number       1
_symmetry_cell_setting            triclinic
loop_
_symmetry_equiv_pos_as_xyz
  x,y,z
_cell_length_a                    43.7753
_cell_length_b                    43.7753
_cell_length_c                    9.9999
_cell_angle_alpha                 90.0
_cell_angle_beta                  90.0
_cell_angle_gamma                 120.0
loop_
_atom_site_label
_atom_site_type_symbol
_atom_site_fract_x
_atom_site_fract_y
_atom_site_fract_z
V1    V   0.19058  0.24857  0.08333
V2    V   0.30942  0.74857  0.08333
V3    V   0.69058  0.24857  0.91667
V4    V   0.80942  0.74857  0.91667
E1    E   0.16667  0.33333  0.33333
E2    E   0.16667  0.33333  0.83333
E3    E   0.19058  0.24857  0.58333
E4    E   0.19566  0.76196  0.25000
E5    E   0.21958  0.15328  0.00000
E6    E   0.28042  0.65328  0.00000
E7    E   0.30434  0.26196  0.25000
E8    E   0.30942  0.74857  0.58333
E9    E   0.33333  0.83333  0.33333
E10   E   0.33333  0.83333  0.83333
E11   E   0.66667  0.33333  0.16667
E12   E   0.66667  0.33333  0.66667
E13   E   0.69058  0.24857  0.41667
E14   E   0.69566  0.76196  0.75000
E15   E   0.71958  0.15328  0.00000
E16   E   0.78042  0.65328  0.00000
E17   E   0.80434  0.26196  0.75000
E18   E   0.80942  0.74857  0.41667
E19   E   0.83333  0.83333  0.16667
E20   E   0.83333  0.83333  0.66667
loop_
