data_ecr_P3221  hall_number: 443, V_con: 8
_audit_creation_date              2025-03-05
_audit_creation_method            'MOFbuilder_1.0'
_symmetry_space_group_name_H-M    'P1'
_symmetry_Int_Tables_number       1
_symmetry_cell_setting            triclinic
loop_
_symmetry_equiv_pos_as_xyz
  x,y,z
_cell_length_a                    16.8615
_cell_length_b                    16.8615
_cell_length_c                    21.8614
_cell_angle_alpha                 90.0
_cell_angle_beta                  90.0
_cell_angle_gamma                 120.0
loop_
_atom_site_label
_atom_site_type_symbol
_atom_site_fract_x
_atom_site_fract_y
_atom_site_fract_z
V1    V   0.09885  0.43218  0.05231
V2    V   0.33333  0.90115  0.38564
V3    V   0.43218  0.09885  0.94769
V4    V   0.56782  0.66667  0.71898
V5    V   0.66667  0.56782  0.28102
V6    V   0.90115  0.33333  0.61436
E1    E   0.00000  0.38276  0.83333
E2    E   0.00000  0.38276  0.83334
E3    E   0.00000  0.73449  0.33333
E4    E   0.11724  0.61724  0.50000
E5    E   0.21609  0.66667  0.21897
E6    E   0.23449  0.50000  0.66667
E7    E   0.26551  0.26551  0.00000
E8    E   0.26551  0.76551  0.00000
E9    E   0.33333  0.54942  0.88564
E10   E   0.38276  0.00000  0.16666
E11   E   0.38276  0.00000  0.16667
E12   E   0.38276  0.50000  0.16667
E13   E   0.45058  0.78391  0.55231
E14   E   0.50000  0.23449  0.33333
E15   E   0.50000  0.38276  0.83333
E16   E   0.50000  0.73449  0.33333
E17   E   0.50000  0.88276  0.83334
E18   E   0.54942  0.33333  0.11436
E19   E   0.61724  0.11724  0.50000
E20   E   0.61724  0.61724  0.50000
E21   E   0.61724  0.61724  0.50000
E22   E   0.66667  0.21609  0.78103
E23   E   0.73449  0.00000  0.66667
E24   E   0.73449  0.50000  0.66667
E25   E   0.76551  0.26551  0.00000
E26   E   0.78391  0.45058  0.44769
E27   E   0.88276  0.50000  0.16666
loop_
