data_ecs_P-3c1  hall_number: 457, V_con: 8
_audit_creation_date              2025-03-05
_audit_creation_method            'MOFbuilder_1.0'
_symmetry_space_group_name_H-M    'P1'
_symmetry_Int_Tables_number       1
_symmetry_cell_setting            triclinic
loop_
_symmetry_equiv_pos_as_xyz
  x,y,z
_cell_length_a                    31.013799999999996
_cell_length_b                    31.013799999999996
_cell_length_c                    16.329800000000002
_cell_angle_alpha                 90.0
_cell_angle_beta                  90.0
_cell_angle_gamma                 120.0
loop_
_atom_site_label
_atom_site_type_symbol
_atom_site_fract_x
_atom_site_fract_y
_atom_site_fract_z
V1    V   0.14718  0.48051  0.93750
V2    V   0.14718  0.66667  0.43750
V3    V   0.33333  0.48051  0.43750
V4    V   0.33333  0.85282  0.93750
V5    V   0.48051  0.14718  0.56250
V6    V   0.48051  0.33333  0.06250
V7    V   0.51949  0.66667  0.93750
V8    V   0.51949  0.85282  0.43750
V9    V   0.66667  0.14718  0.06250
V10   V   0.66667  0.51949  0.56250
V11   V   0.85282  0.33333  0.56250
V12   V   0.85282  0.51949  0.06250
E1    E   0.00000  0.40692  0.75000
E2    E   0.00000  0.50000  0.00000
E3    E   0.00000  0.50000  0.50000
E4    E   0.00000  0.59308  0.25000
E5    E   0.14718  0.57359  0.18750
E6    E   0.14718  0.57359  0.68750
E7    E   0.24025  0.48051  0.68750
E8    E   0.24025  0.57359  0.43750
E9    E   0.24025  0.66666  0.93750
E10   E   0.24025  0.75974  0.18750
E11   E   0.24026  0.48051  0.18750
E12   E   0.24026  0.75975  0.68750
E13   E   0.33334  0.57359  0.93750
E14   E   0.33334  0.75975  0.43750
E15   E   0.40692  0.00000  0.75000
E16   E   0.40692  0.40692  0.25000
E17   E   0.42641  0.57359  0.18750
E18   E   0.42641  0.66666  0.43750
E19   E   0.42641  0.75975  0.93750
E20   E   0.42641  0.85282  0.68750
E21   E   0.42641  0.57359  0.68750
E22   E   0.42641  0.85282  0.18750
E23   E   0.48051  0.24025  0.81250
E24   E   0.48051  0.24026  0.31250
E25   E   0.50000  0.00000  0.00000
E26   E   0.50000  0.00000  0.50000
E27   E   0.50000  0.50000  0.00000
E28   E   0.50000  0.50000  0.50000
E29   E   0.51949  0.75974  0.68750
E30   E   0.51949  0.75975  0.18750
E31   E   0.57359  0.14718  0.31250
E32   E   0.57359  0.14718  0.81250
E33   E   0.57359  0.24025  0.06250
E34   E   0.57359  0.33334  0.56250
E35   E   0.57359  0.42641  0.31250
E36   E   0.57359  0.42641  0.81250
E37   E   0.59308  0.00000  0.25000
E38   E   0.59308  0.59308  0.75000
E39   E   0.66666  0.24025  0.56250
E40   E   0.66666  0.42641  0.06250
E41   E   0.75974  0.24025  0.31250
E42   E   0.75974  0.51949  0.81250
E43   E   0.75975  0.24026  0.81250
E44   E   0.75975  0.33334  0.06250
E45   E   0.75975  0.42641  0.56250
E46   E   0.75975  0.51949  0.31250
E47   E   0.85282  0.42641  0.81250
E48   E   0.85282  0.42641  0.31250
loop_
