data_edp_Pa-3  hall_number: 501, V_con: 4, EC_con: 4
_audit_creation_date              2025-03-05
_audit_creation_method            'MOFbuilder_1.0'
_symmetry_space_group_name_H-M    'P1'
_symmetry_Int_Tables_number       1
_symmetry_cell_setting            triclinic
loop_
_symmetry_equiv_pos_as_xyz
  x,y,z
_cell_length_a                    49.199200000000005
_cell_length_b                    49.199200000000005
_cell_length_c                    49.199200000000005
_cell_angle_alpha                 90.0
_cell_angle_beta                  90.0
_cell_angle_gamma                 90.0
loop_
_atom_site_label
_atom_site_type_symbol
_atom_site_fract_x
_atom_site_fract_y
_atom_site_fract_z
V1    V   0.12119  0.71808  0.26267
V2    V   0.12119  0.78192  0.76267
V3    V   0.21808  0.23733  0.87881
V4    V   0.21808  0.26267  0.37881
V5    V   0.23733  0.62119  0.71808
V6    V   0.23733  0.87881  0.21808
V7    V   0.26267  0.12119  0.71808
V8    V   0.26267  0.37881  0.21808
V9    V   0.28192  0.73733  0.87881
V10   V   0.28192  0.76267  0.37881
V11   V   0.37881  0.21808  0.26267
V12   V   0.37881  0.28192  0.76267
V13   V   0.62119  0.71808  0.23733
V14   V   0.62119  0.78192  0.73733
V15   V   0.71808  0.23733  0.62119
V16   V   0.71808  0.26267  0.12119
V17   V   0.73733  0.62119  0.78192
V18   V   0.73733  0.87881  0.28192
V19   V   0.76267  0.12119  0.78192
V20   V   0.76267  0.37881  0.28192
V21   V   0.78192  0.73733  0.62119
V22   V   0.78192  0.76267  0.12119
V23   V   0.87881  0.21808  0.23733
V24   V   0.87881  0.28192  0.73733
EC1    EC   0.08180  0.20758  0.23844
EC2    EC   0.08180  0.29242  0.73844
EC3    EC   0.20758  0.23844  0.08180
EC4    EC   0.20758  0.26156  0.58180
EC5    EC   0.23844  0.08180  0.20758
EC6    EC   0.23844  0.41820  0.70758
EC7    EC   0.26156  0.58180  0.20758
EC8    EC   0.26156  0.91820  0.70758
EC9    EC   0.29242  0.73844  0.08180
EC10   EC   0.29242  0.76156  0.58180
EC11   EC   0.41820  0.70758  0.23844
EC12   EC   0.41820  0.79242  0.73844
EC13   EC   0.58180  0.20758  0.26156
EC14   EC   0.58180  0.29242  0.76156
EC15   EC   0.70758  0.23844  0.41820
EC16   EC   0.70758  0.26156  0.91820
EC17   EC   0.73844  0.08180  0.29242
EC18   EC   0.73844  0.41820  0.79242
EC19   EC   0.76156  0.58180  0.29242
EC20   EC   0.76156  0.91820  0.79242
EC21   EC   0.79242  0.73844  0.41820
EC22   EC   0.79242  0.76156  0.91820
EC23   EC   0.91820  0.70758  0.26156
EC24   EC   0.91820  0.79242  0.76156
E1    E   0.01970  0.71283  0.26211
E2    E   0.01970  0.78717  0.76211
E3    E   0.14469  0.22301  0.16012
E4    E   0.14469  0.27699  0.66012
E5    E   0.14994  0.23513  0.30863
E6    E   0.14994  0.26487  0.80863
E7    E   0.16012  0.14469  0.22301
E8    E   0.16012  0.35531  0.72301
E9    E   0.17926  0.70155  0.74038
E10   E   0.17926  0.79845  0.24038
E11   E   0.19137  0.64994  0.23513
E12   E   0.19137  0.85006  0.73513
E13   E   0.20155  0.74038  0.32074
E14   E   0.20155  0.75962  0.82074
E15   E   0.21283  0.23789  0.98030
E16   E   0.21283  0.26211  0.48030
E17   E   0.22301  0.16012  0.14469
E18   E   0.22301  0.33988  0.64469
E19   E   0.23513  0.19137  0.64994
E20   E   0.23513  0.30863  0.14994
E21   E   0.23789  0.51970  0.71283
E22   E   0.23789  0.98030  0.21283
E23   E   0.24038  0.17926  0.79845
E24   E   0.24038  0.32074  0.29845
E25   E   0.25962  0.67926  0.79845
E26   E   0.25962  0.82074  0.29845
E27   E   0.26211  0.01970  0.71283
E28   E   0.26211  0.48030  0.21283
E29   E   0.26487  0.69137  0.64994
E30   E   0.26487  0.80863  0.14994
E31   E   0.27699  0.66012  0.14469
E32   E   0.27699  0.83988  0.64469
E33   E   0.28717  0.73789  0.98030
E34   E   0.28717  0.76211  0.48030
E35   E   0.29845  0.24038  0.32074
E36   E   0.29845  0.25962  0.82074
E37   E   0.30863  0.14994  0.23513
E38   E   0.30863  0.35006  0.73513
E39   E   0.32074  0.20155  0.74038
E40   E   0.32074  0.29845  0.24038
E41   E   0.33988  0.64469  0.22301
E42   E   0.33988  0.85531  0.72301
E43   E   0.35006  0.73513  0.30863
E44   E   0.35006  0.76487  0.80863
E45   E   0.35531  0.72301  0.16012
E46   E   0.35531  0.77699  0.66012
E47   E   0.48030  0.21283  0.26211
E48   E   0.48030  0.28717  0.76211
E49   E   0.51970  0.71283  0.23789
E50   E   0.51970  0.78717  0.73789
E51   E   0.64469  0.22301  0.33988
E52   E   0.64469  0.27699  0.83988
E53   E   0.64994  0.23513  0.19137
E54   E   0.64994  0.26487  0.69137
E55   E   0.66012  0.14469  0.27699
E56   E   0.66012  0.35531  0.77699
E57   E   0.67926  0.70155  0.75962
E58   E   0.67926  0.79845  0.25962
E59   E   0.69137  0.64994  0.26487
E60   E   0.69137  0.85006  0.76487
E61   E   0.70155  0.74038  0.17926
E62   E   0.70155  0.75962  0.67926
E63   E   0.71283  0.23789  0.51970
E64   E   0.71283  0.26211  0.01970
E65   E   0.72301  0.16012  0.35531
E66   E   0.72301  0.33988  0.85531
E67   E   0.73513  0.19137  0.85006
E68   E   0.73513  0.30863  0.35006
E69   E   0.73789  0.51970  0.78717
E70   E   0.73789  0.98030  0.28717
E71   E   0.74038  0.17926  0.70155
E72   E   0.74038  0.32074  0.20155
E73   E   0.75962  0.67926  0.70155
E74   E   0.75962  0.82074  0.20155
E75   E   0.76211  0.01970  0.78717
E76   E   0.76211  0.48030  0.28717
E77   E   0.76487  0.69137  0.85006
E78   E   0.76487  0.80863  0.35006
E79   E   0.77699  0.66012  0.35531
E80   E   0.77699  0.83988  0.85531
E81   E   0.78717  0.73789  0.51970
E82   E   0.78717  0.76211  0.01970
E83   E   0.79845  0.24038  0.17926
E84   E   0.79845  0.25962  0.67926
E85   E   0.80863  0.14994  0.26487
E86   E   0.80863  0.35006  0.76487
E87   E   0.82074  0.20155  0.75962
E88   E   0.82074  0.29845  0.25962
E89   E   0.83988  0.64469  0.27699
E90   E   0.83988  0.85531  0.77699
E91   E   0.85006  0.73513  0.19137
E92   E   0.85006  0.76487  0.69137
E93   E   0.85531  0.72301  0.33988
E94   E   0.85531  0.77699  0.83988
E95   E   0.98030  0.21283  0.23789
E96   E   0.98030  0.28717  0.73789
loop_
