data_eea_R-3m:H  hall_number: 166, V_con: 6, EC_con: 3
_audit_creation_date              2025-03-05
_audit_creation_method            'MOFbuilder_1.0'
_symmetry_space_group_name_H-M    'P1'
_symmetry_Int_Tables_number       1
_symmetry_cell_setting            triclinic
loop_
_symmetry_equiv_pos_as_xyz
  x,y,z
_cell_length_a                    36.8242
_cell_length_b                    36.8242
_cell_length_c                    38.5469
_cell_angle_alpha                 90.0
_cell_angle_beta                  90.0
_cell_angle_gamma                 120.0
loop_
_atom_site_label
_atom_site_type_symbol
_atom_site_fract_x
_atom_site_fract_y
_atom_site_fract_z
V1    V   0.00000  0.00000  0.00000
V2    V   0.00000  0.50000  0.50000
V3    V   0.50000  0.00000  0.00000
V4    V   0.50000  0.50000  0.50000
EC1    EC   0.21372  0.10686  0.42686
EC2    EC   0.21372  0.60686  0.07314
EC3    EC   0.71372  0.39314  0.92686
EC4    EC   0.71372  0.89314  0.57314
E1    E   0.36324  0.38676  0.45324
E2    E   0.36324  0.88676  0.04676
E3    E   0.47010  0.44019  0.38010
E4    E   0.47010  0.94019  0.11990
E5    E   0.86324  0.11324  0.95324
E6    E   0.86324  0.61324  0.54676
E7    E   0.97010  0.05981  0.88010
E8    E   0.97010  0.55981  0.61990
loop_
