data_elc_C12/m1  hall_number: 71, V_con: 11
_audit_creation_date              2025-03-05
_audit_creation_method            'MOFbuilder_1.0'
_symmetry_space_group_name_H-M    'P1'
_symmetry_Int_Tables_number       1
_symmetry_cell_setting            triclinic
loop_
_symmetry_equiv_pos_as_xyz
  x,y,z
_cell_length_a                    17.3204
_cell_length_b                    10.0001
_cell_length_c                    17.0606
_cell_angle_alpha                 90.0
_cell_angle_beta                  99.5335
_cell_angle_gamma                 90.0
loop_
_atom_site_label
_atom_site_type_symbol
_atom_site_fract_x
_atom_site_fract_y
_atom_site_fract_z
V1    V   0.20626  0.50000  0.25736
V2    V   0.20626  0.50000  0.74264
V3    V   0.29374  0.00000  0.24264
V4    V   0.29374  0.00000  0.75736
V5    V   0.70626  0.00000  0.24264
V6    V   0.70626  0.00000  0.75736
V7    V   0.79374  0.50000  0.25736
V8    V   0.79374  0.50000  0.74264
E1    E   0.00000  0.50000  0.50000
E2    E   0.04374  0.25000  0.74264
E3    E   0.04374  0.75000  0.25736
E4    E   0.20626  0.00000  0.25736
E5    E   0.20626  0.00000  0.74264
E6    E   0.25000  0.25000  0.00000
E7    E   0.25000  0.25000  0.50000
E8    E   0.25000  0.75000  0.00000
E9    E   0.25000  0.75000  0.50000
E10   E   0.29374  0.50000  0.24264
E11   E   0.29374  0.50000  0.75736
E12   E   0.45626  0.25000  0.75736
E13   E   0.45626  0.75000  0.24264
E14   E   0.50000  0.00000  0.00000
E15   E   0.54374  0.25000  0.75736
E16   E   0.54374  0.75000  0.24264
E17   E   0.70626  0.50000  0.24264
E18   E   0.70626  0.50000  0.75736
E19   E   0.75000  0.25000  0.00000
E20   E   0.75000  0.25000  0.50000
E21   E   0.75000  0.75000  0.00000
E22   E   0.75000  0.75000  0.50000
E23   E   0.79374  0.00000  0.25736
E24   E   0.79374  0.00000  0.74264
E25   E   0.95626  0.25000  0.74264
E26   E   0.95626  0.75000  0.25736
loop_
