data_eld_P3121  hall_number: 441, V_con: 11
_audit_creation_date              2025-03-05
_audit_creation_method            'MOFbuilder_1.0'
_symmetry_space_group_name_H-M    'P1'
_symmetry_Int_Tables_number       1
_symmetry_cell_setting            triclinic
loop_
_symmetry_equiv_pos_as_xyz
  x,y,z
_cell_length_a                    10.0
_cell_length_b                    10.0
_cell_length_c                    50.4751
_cell_angle_alpha                 90.0
_cell_angle_beta                  90.0
_cell_angle_gamma                 120.0
loop_
_atom_site_label
_atom_site_type_symbol
_atom_site_fract_x
_atom_site_fract_y
_atom_site_fract_z
V1    V   0.16949  0.66667  0.91422
V2    V   0.33333  0.50282  0.24755
V3    V   0.49718  0.83051  0.58088
V4    V   0.50282  0.33333  0.75245
V5    V   0.66667  0.16949  0.08578
V6    V   0.83051  0.49718  0.41912
E1    E   0.00000  0.33616  0.16666
E2    E   0.00000  0.33616  0.16667
E3    E   0.00282  0.33333  0.75245
E4    E   0.00282  0.83333  0.75245
E5    E   0.08192  0.50000  0.33334
E6    E   0.16384  0.66384  0.50000
E7    E   0.16667  0.16949  0.08578
E8    E   0.16667  0.66949  0.08578
E9    E   0.16949  0.16667  0.91422
E10   E   0.33051  0.49718  0.41912
E11   E   0.33051  0.99718  0.41912
E12   E   0.33333  0.00282  0.24755
E13   E   0.33616  0.00000  0.83333
E14   E   0.33616  0.00000  0.83334
E15   E   0.33616  0.50000  0.83333
E16   E   0.41808  0.91808  0.00000
E17   E   0.49718  0.33051  0.58088
E18   E   0.50000  0.08192  0.66666
E19   E   0.50000  0.33616  0.16667
E20   E   0.50000  0.58192  0.66667
E21   E   0.50000  0.83616  0.16666
E22   E   0.50282  0.83333  0.75245
E23   E   0.58192  0.50000  0.33333
E24   E   0.66384  0.16384  0.50000
E25   E   0.66384  0.66384  0.50000
E26   E   0.66384  0.66384  0.50000
E27   E   0.66667  0.66949  0.08578
E28   E   0.66949  0.66667  0.91422
E29   E   0.66949  0.16667  0.91422
E30   E   0.83051  0.99718  0.41912
E31   E   0.83333  0.00282  0.24755
E32   E   0.83333  0.50282  0.24755
E33   E   0.83616  0.50000  0.83334
E34   E   0.91808  0.41808  1.00000
E35   E   0.99718  0.33051  0.58088
E36   E   0.99718  0.83051  0.58088
loop_
