data_elv_I23  hall_number: 491, V_con: 4
_audit_creation_date              2025-03-05
_audit_creation_method            'MOFbuilder_1.0'
_symmetry_space_group_name_H-M    'P1'
_symmetry_Int_Tables_number       1
_symmetry_cell_setting            triclinic
loop_
_symmetry_equiv_pos_as_xyz
  x,y,z
_cell_length_a                    10.957799999999999
_cell_length_b                    10.957799999999999
_cell_length_c                    10.957799999999999
_cell_angle_alpha                 90.0
_cell_angle_beta                  90.0
_cell_angle_gamma                 90.0
loop_
_atom_site_label
_atom_site_type_symbol
_atom_site_fract_x
_atom_site_fract_y
_atom_site_fract_z
V1    V   0.13541  0.19853  0.81071
V2    V   0.13541  0.80147  0.18929
V3    V   0.18929  0.13541  0.80147
V4    V   0.18929  0.86459  0.19853
V5    V   0.19853  0.18929  0.86459
V6    V   0.19853  0.81071  0.13541
V7    V   0.30147  0.31071  0.36459
V8    V   0.30147  0.68929  0.63541
V9    V   0.31071  0.36459  0.30147
V10   V   0.31071  0.63541  0.69853
V11   V   0.36459  0.30147  0.31071
V12   V   0.36459  0.69853  0.68929
V13   V   0.63541  0.30147  0.68929
V14   V   0.63541  0.69853  0.31071
V15   V   0.68929  0.36459  0.69853
V16   V   0.68929  0.63541  0.30147
V17   V   0.69853  0.31071  0.63541
V18   V   0.69853  0.68929  0.36459
V19   V   0.80147  0.18929  0.13541
V20   V   0.80147  0.81071  0.86459
V21   V   0.81071  0.13541  0.19853
V22   V   0.81071  0.86459  0.80147
V23   V   0.86459  0.19853  0.18929
V24   V   0.86459  0.80147  0.81071
E1    E   0.00000  0.00000  0.31071
E2    E   0.00000  0.00000  0.68929
E3    E   0.00000  0.31071  0.00000
E4    E   0.00000  0.36459  0.50000
E5    E   0.00000  0.50000  0.13541
E6    E   0.00000  0.50000  0.86459
E7    E   0.00000  0.63541  0.50000
E8    E   0.00000  0.68929  0.00000
E9    E   0.05609  0.22306  0.78156
E10   E   0.05609  0.77694  0.21844
E11   E   0.13541  0.00000  0.50000
E12   E   0.18929  0.50000  0.50000
E13   E   0.21844  0.05609  0.77694
E14   E   0.21844  0.94391  0.22306
E15   E   0.22306  0.21844  0.94391
E16   E   0.22306  0.78156  0.05609
E17   E   0.27694  0.28156  0.44391
E18   E   0.27694  0.71844  0.55609
E19   E   0.28156  0.44391  0.27694
E20   E   0.28156  0.55609  0.72306
E21   E   0.31071  0.00000  0.00000
E22   E   0.36459  0.50000  0.00000
E23   E   0.44391  0.27694  0.28156
E24   E   0.44391  0.72306  0.71844
E25   E   0.50000  0.00000  0.36459
E26   E   0.50000  0.00000  0.63541
E27   E   0.50000  0.13541  0.00000
E28   E   0.50000  0.18929  0.50000
E29   E   0.50000  0.50000  0.18929
E30   E   0.50000  0.50000  0.81071
E31   E   0.50000  0.81071  0.50000
E32   E   0.50000  0.86459  0.00000
E33   E   0.55609  0.27694  0.71844
E34   E   0.55609  0.72306  0.28156
E35   E   0.63541  0.50000  0.00000
E36   E   0.68929  0.00000  0.00000
E37   E   0.71844  0.44391  0.72306
E38   E   0.71844  0.55609  0.27694
E39   E   0.72306  0.28156  0.55609
E40   E   0.72306  0.71844  0.44391
E41   E   0.77694  0.21844  0.05609
E42   E   0.77694  0.78156  0.94391
E43   E   0.78156  0.05609  0.22306
E44   E   0.78156  0.94391  0.77694
E45   E   0.81071  0.50000  0.50000
E46   E   0.86459  0.00000  0.50000
E47   E   0.94391  0.22306  0.21844
E48   E   0.94391  0.77694  0.78156
loop_
