data_eri_P63/mmc  hall_number: 488, V_con: 4, EC_con: 4
_audit_creation_date              2025-03-05
_audit_creation_method            'MOFbuilder_1.0'
_symmetry_space_group_name_H-M    'P1'
_symmetry_Int_Tables_number       1
_symmetry_cell_setting            triclinic
loop_
_symmetry_equiv_pos_as_xyz
  x,y,z
_cell_length_a                    42.1644
_cell_length_b                    42.1644
_cell_length_c                    48.474599999999995
_cell_angle_alpha                 90.0
_cell_angle_beta                  90.0
_cell_angle_gamma                 120.0
loop_
_atom_site_label
_atom_site_type_symbol
_atom_site_fract_x
_atom_site_fract_y
_atom_site_fract_z
V1    V   0.00000  0.23717  0.10315
V2    V   0.00000  0.23717  0.39685
V3    V   0.00000  0.23717  0.60315
V4    V   0.00000  0.23717  0.89685
V5    V   0.00000  0.76283  0.10315
V6    V   0.00000  0.76283  0.39685
V7    V   0.00000  0.76283  0.60315
V8    V   0.00000  0.76283  0.89685
V9    V   0.23717  0.00000  0.10315
V10   V   0.23717  0.00000  0.39685
V11   V   0.23717  0.00000  0.60315
V12   V   0.23717  0.00000  0.89685
V13   V   0.23717  0.23717  0.10315
V14   V   0.23717  0.23717  0.39685
V15   V   0.23717  0.23717  0.60315
V16   V   0.23717  0.23717  0.89685
V17   V   0.76283  0.00000  0.10315
V18   V   0.76283  0.00000  0.39685
V19   V   0.76283  0.00000  0.60315
V20   V   0.76283  0.00000  0.89685
V21   V   0.76283  0.76283  0.10315
V22   V   0.76283  0.76283  0.39685
V23   V   0.76283  0.76283  0.60315
V24   V   0.76283  0.76283  0.89685
EC1    EC   0.09617  0.42950  0.25000
EC2    EC   0.09617  0.66667  0.25000
EC3    EC   0.33333  0.42950  0.25000
EC4    EC   0.33333  0.90383  0.25000
EC5    EC   0.42950  0.09617  0.75000
EC6    EC   0.42950  0.33333  0.75000
EC7    EC   0.57050  0.66667  0.25000
EC8    EC   0.57050  0.90383  0.25000
EC9    EC   0.66667  0.09617  0.75000
EC10   EC   0.66667  0.57050  0.75000
EC11   EC   0.90383  0.33333  0.75000
EC12   EC   0.90383  0.57050  0.75000
E1    E   0.00000  0.23717  0.00000
E2    E   0.00000  0.23717  0.50000
E3    E   0.00000  0.76283  0.00000
E4    E   0.00000  0.76283  0.50000
E5    E   0.04808  0.33333  0.17657
E6    E   0.04808  0.33333  0.32343
E7    E   0.04808  0.71475  0.17657
E8    E   0.04808  0.71475  0.32343
E9    E   0.09617  0.54808  0.25000
E10   E   0.09617  0.54809  0.25000
E11   E   0.11858  0.23716  0.10315
E12   E   0.11858  0.23716  0.39685
E13   E   0.11858  0.23717  0.60315
E14   E   0.11858  0.23717  0.89685
E15   E   0.11858  0.88141  0.60315
E16   E   0.11858  0.88141  0.89685
E17   E   0.11858  0.88142  0.10315
E18   E   0.11858  0.88142  0.39685
E19   E   0.11859  0.23717  0.60315
E20   E   0.11859  0.23717  0.89685
E21   E   0.11859  0.88142  0.60315
E22   E   0.11859  0.88142  0.89685
E23   E   0.21475  0.42950  0.25000
E24   E   0.21475  0.78525  0.25000
E25   E   0.23716  0.11858  0.60315
E26   E   0.23716  0.11858  0.89685
E27   E   0.23717  0.00000  0.00000
E28   E   0.23717  0.00000  0.50000
E29   E   0.23717  0.11858  0.10315
E30   E   0.23717  0.11858  0.39685
E31   E   0.23717  0.11859  0.10315
E32   E   0.23717  0.11859  0.39685
E33   E   0.23717  0.23717  0.00000
E34   E   0.23717  0.23717  0.50000
E35   E   0.28525  0.33333  0.17657
E36   E   0.28525  0.33333  0.32343
E37   E   0.28525  0.95192  0.17657
E38   E   0.28525  0.95192  0.32343
E39   E   0.33333  0.04808  0.67657
E40   E   0.33333  0.04808  0.82343
E41   E   0.33333  0.28525  0.67657
E42   E   0.33333  0.28525  0.82343
E43   E   0.42950  0.21475  0.75000
E44   E   0.45191  0.54808  0.25000
E45   E   0.45191  0.90383  0.25000
E46   E   0.45192  0.54809  0.25000
E47   E   0.45192  0.90383  0.25000
E48   E   0.54808  0.09617  0.75000
E49   E   0.54808  0.45191  0.75000
E50   E   0.54809  0.09617  0.75000
E51   E   0.54809  0.45192  0.75000
E52   E   0.57050  0.78525  0.25000
E53   E   0.66667  0.71475  0.17657
E54   E   0.66667  0.71475  0.32343
E55   E   0.66667  0.95192  0.17657
E56   E   0.66667  0.95192  0.32343
E57   E   0.71475  0.04808  0.67657
E58   E   0.71475  0.04808  0.82343
E59   E   0.71475  0.66667  0.67657
E60   E   0.71475  0.66667  0.82343
E61   E   0.76283  0.00000  0.00000
E62   E   0.76283  0.00000  0.50000
E63   E   0.76283  0.76283  0.00000
E64   E   0.76283  0.76283  0.50000
E65   E   0.76283  0.88141  0.60315
E66   E   0.76283  0.88141  0.89685
E67   E   0.76283  0.88142  0.60315
E68   E   0.76283  0.88142  0.89685
E69   E   0.76284  0.88142  0.10315
E70   E   0.76284  0.88142  0.39685
E71   E   0.78525  0.21475  0.75000
E72   E   0.78525  0.57050  0.75000
E73   E   0.88141  0.11858  0.10315
E74   E   0.88141  0.11858  0.39685
E75   E   0.88141  0.76283  0.10315
E76   E   0.88141  0.76283  0.39685
E77   E   0.88142  0.11858  0.60315
E78   E   0.88142  0.11858  0.89685
E79   E   0.88142  0.11859  0.10315
E80   E   0.88142  0.11859  0.39685
E81   E   0.88142  0.76283  0.10315
E82   E   0.88142  0.76283  0.39685
E83   E   0.88142  0.76284  0.60315
E84   E   0.88142  0.76284  0.89685
E85   E   0.90383  0.45191  0.75000
E86   E   0.90383  0.45192  0.75000
E87   E   0.95192  0.28525  0.67657
E88   E   0.95192  0.28525  0.82343
E89   E   0.95192  0.66667  0.67657
E90   E   0.95192  0.66667  0.82343
loop_
