data_eta_P6222  hall_number: 474, V_con: 3
_audit_creation_date              2025-03-05
_audit_creation_method            'MOFbuilder_1.0'
_symmetry_space_group_name_H-M    'P1'
_symmetry_Int_Tables_number       1
_symmetry_cell_setting            triclinic
loop_
_symmetry_equiv_pos_as_xyz
  x,y,z
_cell_length_a                    30.9998
_cell_length_b                    30.9998
_cell_length_c                    21.8854
_cell_angle_alpha                 90.0
_cell_angle_beta                  90.0
_cell_angle_gamma                 120.0
loop_
_atom_site_label
_atom_site_type_symbol
_atom_site_fract_x
_atom_site_fract_y
_atom_site_fract_z
V1    V   0.18624  0.59312  0.16666
V2    V   0.18624  0.59312  0.16667
V3    V   0.40688  0.59312  0.83333
V4    V   0.40688  0.59312  0.83334
V5    V   0.40688  0.81376  0.50000
V6    V   0.40688  0.81376  0.50000
V7    V   0.59312  0.18624  0.50000
V8    V   0.59312  0.18624  0.50000
V9    V   0.59312  0.40688  0.83333
V10   V   0.59312  0.40688  0.83334
V11   V   0.81376  0.40688  0.16666
V12   V   0.81376  0.40688  0.16667
E1    E   0.00000  0.50000  0.16666
E2    E   0.00000  0.50000  0.16667
E3    E   0.29656  0.59312  0.00000
E4    E   0.29656  0.70344  0.33333
E5    E   0.40688  0.70344  0.66667
E6    E   0.50000  0.00000  0.50000
E7    E   0.50000  0.00000  0.50000
E8    E   0.50000  0.50000  0.83333
E9    E   0.50000  0.50000  0.83334
E10   E   0.59312  0.29656  0.66667
E11   E   0.70344  0.29656  0.33333
E12   E   0.70344  0.40688  0.00000
loop_
