data_etf_R-3c:H  hall_number: 167, V_con: 3
_audit_creation_date              2025-03-05
_audit_creation_method            'MOFbuilder_1.0'
_symmetry_space_group_name_H-M    'P1'
_symmetry_Int_Tables_number       1
_symmetry_cell_setting            triclinic
loop_
_symmetry_equiv_pos_as_xyz
  x,y,z
_cell_length_a                    63.416
_cell_length_b                    63.416
_cell_length_c                    29.8677
_cell_angle_alpha                 90.0
_cell_angle_beta                  90.0
_cell_angle_gamma                 120.0
loop_
_atom_site_label
_atom_site_type_symbol
_atom_site_fract_x
_atom_site_fract_y
_atom_site_fract_z
V1    V   0.09098  0.19252  0.74385
V2    V   0.09098  0.30748  0.24385
V3    V   0.59098  0.69252  0.75615
V4    V   0.59098  0.80748  0.25615
E1    E   0.00000  0.23801  0.75000
E2    E   0.00000  0.26199  0.25000
E3    E   0.10391  0.16667  0.58333
E4    E   0.10391  0.33333  0.08333
E5    E   0.16667  0.16667  0.83333
E6    E   0.16667  0.33333  0.33333
E7    E   0.50000  0.73801  0.75000
E8    E   0.50000  0.76199  0.25000
E9    E   0.60391  0.66667  0.91667
E10   E   0.60391  0.83333  0.41667
E11   E   0.66667  0.66667  0.66667
E12   E   0.66667  0.83333  0.16667
loop_
