data_etg_P42/mcm  hall_number: 413, V_con: 3, EC_con: 3
_audit_creation_date              2025-03-05
_audit_creation_method            'MOFbuilder_1.0'
_symmetry_space_group_name_H-M    'P1'
_symmetry_Int_Tables_number       1
_symmetry_cell_setting            triclinic
loop_
_symmetry_equiv_pos_as_xyz
  x,y,z
_cell_length_a                    34.2804
_cell_length_b                    34.2804
_cell_length_c                    40.5145
_cell_angle_alpha                 90.0
_cell_angle_beta                  90.0
_cell_angle_gamma                 90.0
loop_
_atom_site_label
_atom_site_type_symbol
_atom_site_fract_x
_atom_site_fract_y
_atom_site_fract_z
V1    V   0.32152  0.32152  0.12341
V2    V   0.32152  0.32152  0.87659
V3    V   0.32152  0.67848  0.37659
V4    V   0.32152  0.67848  0.62341
V5    V   0.67848  0.32152  0.37659
V6    V   0.67848  0.32152  0.62341
V7    V   0.67848  0.67848  0.12341
V8    V   0.67848  0.67848  0.87659
EC1    EC   0.14586  0.50000  0.25000
EC2    EC   0.14586  0.50000  0.75000
EC3    EC   0.50000  0.14586  0.25000
EC4    EC   0.50000  0.14586  0.75000
EC5    EC   0.50000  0.85414  0.25000
EC6    EC   0.50000  0.85414  0.75000
EC7    EC   0.85414  0.50000  0.25000
EC8    EC   0.85414  0.50000  0.75000
E1    E   0.00000  0.50000  0.25000
E2    E   0.00000  0.50000  0.75000
E3    E   0.23369  0.41076  0.18671
E4    E   0.23369  0.41076  0.81329
E5    E   0.23369  0.58924  0.31329
E6    E   0.23369  0.58924  0.68671
E7    E   0.32152  0.32152  0.00000
E8    E   0.32152  0.67848  0.50000
E9    E   0.41076  0.23369  0.18671
E10   E   0.41076  0.23369  0.81329
E11   E   0.41076  0.76631  0.31329
E12   E   0.41076  0.76631  0.68671
E13   E   0.50000  0.00000  0.25000
E14   E   0.50000  0.00000  0.75000
E15   E   0.58924  0.23369  0.31329
E16   E   0.58924  0.23369  0.68671
E17   E   0.58924  0.76631  0.18671
E18   E   0.58924  0.76631  0.81329
E19   E   0.67848  0.32152  0.50000
E20   E   0.67848  0.67848  0.00000
E21   E   0.76631  0.41076  0.31329
E22   E   0.76631  0.41076  0.68671
E23   E   0.76631  0.58924  0.18671
E24   E   0.76631  0.58924  0.81329
loop_
