data_fcl_I4132  hall_number: 510, V_con: 5
_audit_creation_date              2025-03-05
_audit_creation_method            'MOFbuilder_1.0'
_symmetry_space_group_name_H-M    'P1'
_symmetry_Int_Tables_number       1
_symmetry_cell_setting            triclinic
loop_
_symmetry_equiv_pos_as_xyz
  x,y,z
_cell_length_a                    39.9072
_cell_length_b                    39.9072
_cell_length_c                    39.9072
_cell_angle_alpha                 90.0
_cell_angle_beta                  90.0
_cell_angle_gamma                 90.0
loop_
_atom_site_label
_atom_site_type_symbol
_atom_site_fract_x
_atom_site_fract_y
_atom_site_fract_z
V1    V   0.00440  0.12479  0.42279
V2    V   0.00440  0.87521  0.07721
V3    V   0.07721  0.00440  0.87521
V4    V   0.07721  0.99560  0.62479
V5    V   0.12479  0.42279  0.00440
V6    V   0.12479  0.57721  0.49560
V7    V   0.12521  0.24560  0.82721
V8    V   0.12521  0.75440  0.67279
V9    V   0.17279  0.37479  0.24560
V10   V   0.17279  0.62521  0.25440
V11   V   0.24560  0.17279  0.37479
V12   V   0.24560  0.82721  0.12521
V13   V   0.25440  0.17279  0.62521
V14   V   0.25440  0.82721  0.87479
V15   V   0.32721  0.37479  0.75440
V16   V   0.32721  0.62521  0.74560
V17   V   0.37479  0.24560  0.17279
V18   V   0.37479  0.75440  0.32721
V19   V   0.37521  0.42279  0.99560
V20   V   0.37521  0.57721  0.50440
V21   V   0.42279  0.00440  0.12479
V22   V   0.42279  0.99560  0.37521
V23   V   0.49560  0.12479  0.57721
V24   V   0.49560  0.87521  0.92279
V25   V   0.50440  0.37521  0.57721
V26   V   0.50440  0.62479  0.92279
V27   V   0.57721  0.49560  0.12479
V28   V   0.57721  0.50440  0.37521
V29   V   0.62479  0.07721  0.99560
V30   V   0.62479  0.92279  0.50440
V31   V   0.62521  0.25440  0.17279
V32   V   0.62521  0.74560  0.32721
V33   V   0.67279  0.12521  0.75440
V34   V   0.67279  0.87479  0.74560
V35   V   0.74560  0.32721  0.62521
V36   V   0.74560  0.67279  0.87479
V37   V   0.75440  0.32721  0.37479
V38   V   0.75440  0.67279  0.12521
V39   V   0.82721  0.12521  0.24560
V40   V   0.82721  0.87479  0.25440
V41   V   0.87479  0.25440  0.82721
V42   V   0.87479  0.74560  0.67279
V43   V   0.87521  0.07721  0.00440
V44   V   0.87521  0.92279  0.49560
V45   V   0.92279  0.49560  0.87521
V46   V   0.92279  0.50440  0.62479
V47   V   0.99560  0.37521  0.42279
V48   V   0.99560  0.62479  0.07721
E1    E   0.00000  0.25000  0.42279
E2    E   0.00000  0.25000  0.82721
E3    E   0.00000  0.75000  0.07721
E4    E   0.00000  0.75000  0.67279
E5    E   0.02379  0.45920  0.93980
E6    E   0.02379  0.54080  0.56020
E7    E   0.04080  0.06020  0.52379
E8    E   0.04080  0.93980  0.97621
E9    E   0.06020  0.47621  0.45920
E10   E   0.06020  0.52379  0.04080
E11   E   0.07721  0.00000  0.75000
E12   E   0.08420  0.37500  0.33420
E13   E   0.08420  0.62500  0.16580
E14   E   0.08420  0.37500  0.33420
E15   E   0.08420  0.62500  0.16580
E16   E   0.10121  0.12500  0.85121
E17   E   0.10121  0.87500  0.64879
E18   E   0.10121  0.12500  0.85121
E19   E   0.10121  0.87500  0.64879
E20   E   0.12500  0.14879  0.39879
E21   E   0.12500  0.14879  0.39879
E22   E   0.12500  0.33420  0.91580
E23   E   0.12500  0.66580  0.58420
E24   E   0.12500  0.85121  0.10121
E25   E   0.12500  0.85121  0.10121
E26   E   0.14879  0.39879  0.12500
E27   E   0.14879  0.60121  0.37500
E28   E   0.14879  0.39879  0.12500
E29   E   0.14879  0.60121  0.37500
E30   E   0.16580  0.08420  0.62500
E31   E   0.16580  0.08420  0.62500
E32   E   0.16580  0.91580  0.87500
E33   E   0.17279  0.50000  0.25000
E34   E   0.18980  0.20920  0.72621
E35   E   0.18980  0.79080  0.77379
E36   E   0.20920  0.27379  0.31020
E37   E   0.20920  0.72621  0.18980
E38   E   0.22621  0.31020  0.79080
E39   E   0.22621  0.68980  0.70920
E40   E   0.25000  0.17279  0.50000
E41   E   0.25000  0.42279  0.00000
E42   E   0.25000  0.57721  0.50000
E43   E   0.25000  0.82721  0.00000
E44   E   0.27379  0.31020  0.20920
E45   E   0.27379  0.68980  0.29080
E46   E   0.29080  0.27379  0.68980
E47   E   0.29080  0.72621  0.81020
E48   E   0.31020  0.20920  0.27379
E49   E   0.31020  0.79080  0.22621
E50   E   0.32721  0.50000  0.75000
E51   E   0.33420  0.08420  0.37500
E52   E   0.33420  0.08420  0.37500
E53   E   0.33420  0.91580  0.12500
E54   E   0.35121  0.39879  0.87500
E55   E   0.35121  0.60121  0.62500
E56   E   0.37500  0.14879  0.60121
E57   E   0.37500  0.14879  0.60121
E58   E   0.37500  0.33420  0.08420
E59   E   0.37500  0.33420  0.08420
E60   E   0.37500  0.66580  0.41580
E61   E   0.37500  0.85121  0.89879
E62   E   0.39879  0.12500  0.14879
E63   E   0.39879  0.12500  0.14879
E64   E   0.39879  0.87500  0.35121
E65   E   0.41580  0.37500  0.66580
E66   E   0.41580  0.62500  0.83420
E67   E   0.42279  0.00000  0.25000
E68   E   0.43980  0.47621  0.54080
E69   E   0.43980  0.52379  0.95920
E70   E   0.45920  0.06020  0.47621
E71   E   0.45920  0.93980  0.02379
E72   E   0.47621  0.45920  0.06020
E73   E   0.47621  0.54080  0.43980
E74   E   0.50000  0.25000  0.17279
E75   E   0.50000  0.25000  0.57721
E76   E   0.50000  0.75000  0.32721
E77   E   0.50000  0.75000  0.92279
E78   E   0.52379  0.04080  0.06020
E79   E   0.52379  0.95920  0.43980
E80   E   0.54080  0.43980  0.47621
E81   E   0.54080  0.56020  0.02379
E82   E   0.56020  0.02379  0.54080
E83   E   0.56020  0.97621  0.95920
E84   E   0.57721  0.50000  0.25000
E85   E   0.58420  0.12500  0.66580
E86   E   0.58420  0.87500  0.83420
E87   E   0.60121  0.37500  0.14879
E88   E   0.60121  0.37500  0.14879
E89   E   0.60121  0.62500  0.35121
E90   E   0.62500  0.16580  0.08420
E91   E   0.62500  0.16580  0.08420
E92   E   0.62500  0.35121  0.60121
E93   E   0.62500  0.64879  0.89879
E94   E   0.62500  0.83420  0.41580
E95   E   0.64879  0.10121  0.87500
E96   E   0.64879  0.10121  0.87500
E97   E   0.64879  0.89879  0.62500
E98   E   0.66580  0.41580  0.37500
E99   E   0.66580  0.58420  0.12500
E100  E   0.67279  0.00000  0.75000
E101  E   0.68980  0.29080  0.27379
E102  E   0.68980  0.70920  0.22621
E103  E   0.70920  0.22621  0.68980
E104  E   0.70920  0.77379  0.81020
E105  E   0.72621  0.18980  0.20920
E106  E   0.72621  0.81020  0.29080
E107  E   0.75000  0.07721  0.00000
E108  E   0.75000  0.32721  0.50000
E109  E   0.75000  0.67279  0.00000
E110  E   0.75000  0.92279  0.50000
E111  E   0.77379  0.18980  0.79080
E112  E   0.77379  0.81020  0.70920
E113  E   0.79080  0.22621  0.31020
E114  E   0.79080  0.77379  0.18980
E115  E   0.81020  0.29080  0.72621
E116  E   0.81020  0.70920  0.77379
E117  E   0.82721  0.00000  0.25000
E118  E   0.83420  0.41580  0.62500
E119  E   0.83420  0.58420  0.87500
E120  E   0.85121  0.10121  0.12500
E121  E   0.85121  0.10121  0.12500
E122  E   0.85121  0.89879  0.37500
E123  E   0.87500  0.16580  0.91580
E124  E   0.87500  0.35121  0.39879
E125  E   0.87500  0.64879  0.10121
E126  E   0.87500  0.64879  0.10121
E127  E   0.87500  0.83420  0.58420
E128  E   0.89879  0.37500  0.85121
E129  E   0.89879  0.62500  0.64879
E130  E   0.91580  0.12500  0.33420
E131  E   0.91580  0.87500  0.16580
E132  E   0.92279  0.50000  0.75000
E133  E   0.93980  0.02379  0.45920
E134  E   0.93980  0.97621  0.04080
E135  E   0.95920  0.43980  0.52379
E136  E   0.95920  0.56020  0.97621
E137  E   0.97621  0.04080  0.93980
E138  E   0.97621  0.95920  0.56020
loop_
