data_fcm_I4132  hall_number: 510, V_con: 5
_audit_creation_date              2025-03-05
_audit_creation_method            'MOFbuilder_1.0'
_symmetry_space_group_name_H-M    'P1'
_symmetry_Int_Tables_number       1
_symmetry_cell_setting            triclinic
loop_
_symmetry_equiv_pos_as_xyz
  x,y,z
_cell_length_a                    42.519099999999995
_cell_length_b                    42.519099999999995
_cell_length_c                    42.519099999999995
_cell_angle_alpha                 90.0
_cell_angle_beta                  90.0
_cell_angle_gamma                 90.0
loop_
_atom_site_label
_atom_site_type_symbol
_atom_site_fract_x
_atom_site_fract_y
_atom_site_fract_z
V1    V   0.01576  0.04647  0.35802
V2    V   0.01576  0.95353  0.14198
V3    V   0.04647  0.35802  0.01576
V4    V   0.04647  0.64198  0.48424
V5    V   0.10802  0.29647  0.23424
V6    V   0.10802  0.70353  0.26576
V7    V   0.14198  0.01576  0.95353
V8    V   0.14198  0.98424  0.54647
V9    V   0.20353  0.23424  0.89198
V10   V   0.20353  0.76576  0.60802
V11   V   0.23424  0.10802  0.29647
V12   V   0.23424  0.89198  0.20353
V13   V   0.26576  0.10802  0.70353
V14   V   0.26576  0.89198  0.79647
V15   V   0.29647  0.23424  0.10802
V16   V   0.29647  0.76576  0.39198
V17   V   0.35802  0.01576  0.04647
V18   V   0.35802  0.98424  0.45353
V19   V   0.39198  0.29647  0.76576
V20   V   0.39198  0.70353  0.73424
V21   V   0.45353  0.35802  0.98424
V22   V   0.45353  0.64198  0.51576
V23   V   0.48424  0.04647  0.64198
V24   V   0.48424  0.95353  0.85802
V25   V   0.51576  0.45353  0.64198
V26   V   0.51576  0.54647  0.85802
V27   V   0.54647  0.14198  0.98424
V28   V   0.54647  0.85802  0.51576
V29   V   0.60802  0.20353  0.76576
V30   V   0.60802  0.79647  0.73424
V31   V   0.64198  0.48424  0.04647
V32   V   0.64198  0.51576  0.45353
V33   V   0.70353  0.26576  0.10802
V34   V   0.70353  0.73424  0.39198
V35   V   0.73424  0.39198  0.70353
V36   V   0.73424  0.60802  0.79647
V37   V   0.76576  0.39198  0.29647
V38   V   0.76576  0.60802  0.20353
V39   V   0.79647  0.26576  0.89198
V40   V   0.79647  0.73424  0.60802
V41   V   0.85802  0.48424  0.95353
V42   V   0.85802  0.51576  0.54647
V43   V   0.89198  0.20353  0.23424
V44   V   0.89198  0.79647  0.26576
V45   V   0.95353  0.14198  0.01576
V46   V   0.95353  0.85802  0.48424
V47   V   0.98424  0.45353  0.35802
V48   V   0.98424  0.54647  0.14198
E1    E   0.00000  0.25000  0.01576
E2    E   0.00000  0.25000  0.23424
E3    E   0.00000  0.75000  0.26576
E4    E   0.00000  0.75000  0.48424
E5    E   0.01535  0.45225  0.07887
E6    E   0.01535  0.54775  0.42113
E7    E   0.01576  0.00000  0.25000
E8    E   0.04613  0.37500  0.29613
E9    E   0.04613  0.62500  0.20387
E10   E   0.04613  0.37500  0.29613
E11   E   0.04613  0.62500  0.20387
E12   E   0.04775  0.07887  0.98465
E13   E   0.04775  0.92113  0.51535
E14   E   0.07725  0.32725  0.12500
E15   E   0.07725  0.67275  0.37500
E16   E   0.07725  0.32725  0.12500
E17   E   0.07725  0.67275  0.37500
E18   E   0.07887  0.01535  0.45225
E19   E   0.07887  0.98465  0.04775
E20   E   0.12500  0.07725  0.32725
E21   E   0.12500  0.07725  0.32725
E22   E   0.12500  0.29613  0.95387
E23   E   0.12500  0.70387  0.54613
E24   E   0.12500  0.92275  0.17275
E25   E   0.17113  0.20225  0.26535
E26   E   0.17113  0.79775  0.23465
E27   E   0.17275  0.12500  0.92275
E28   E   0.17275  0.87500  0.57725
E29   E   0.20225  0.26535  0.17113
E30   E   0.20225  0.73465  0.32887
E31   E   0.20387  0.04613  0.62500
E32   E   0.20387  0.04613  0.62500
E33   E   0.20387  0.95387  0.87500
E34   E   0.23424  0.00000  0.25000
E35   E   0.23465  0.17113  0.79775
E36   E   0.23465  0.82887  0.70225
E37   E   0.25000  0.01576  0.00000
E38   E   0.25000  0.23424  0.00000
E39   E   0.25000  0.76576  0.50000
E40   E   0.25000  0.98424  0.50000
E41   E   0.26535  0.17113  0.20225
E42   E   0.26535  0.82887  0.29775
E43   E   0.26576  0.00000  0.75000
E44   E   0.29613  0.04613  0.37500
E45   E   0.29613  0.04613  0.37500
E46   E   0.29613  0.95387  0.12500
E47   E   0.29775  0.26535  0.82887
E48   E   0.29775  0.73465  0.67113
E49   E   0.32725  0.12500  0.07725
E50   E   0.32725  0.12500  0.07725
E51   E   0.32725  0.87500  0.42275
E52   E   0.32887  0.20225  0.73465
E53   E   0.32887  0.79775  0.76535
E54   E   0.37500  0.07725  0.67275
E55   E   0.37500  0.07725  0.67275
E56   E   0.37500  0.29613  0.04613
E57   E   0.37500  0.29613  0.04613
E58   E   0.37500  0.70387  0.45387
E59   E   0.37500  0.92275  0.82725
E60   E   0.42113  0.01535  0.54775
E61   E   0.42113  0.98465  0.95225
E62   E   0.42275  0.32725  0.87500
E63   E   0.42275  0.67275  0.62500
E64   E   0.45225  0.07887  0.01535
E65   E   0.45225  0.92113  0.48465
E66   E   0.45387  0.37500  0.70387
E67   E   0.45387  0.62500  0.79613
E68   E   0.48424  0.00000  0.75000
E69   E   0.48465  0.45225  0.92113
E70   E   0.48465  0.54775  0.57887
E71   E   0.50000  0.25000  0.76576
E72   E   0.50000  0.25000  0.98424
E73   E   0.50000  0.75000  0.51576
E74   E   0.50000  0.75000  0.73424
E75   E   0.51535  0.04775  0.92113
E76   E   0.51535  0.95225  0.57887
E77   E   0.51576  0.50000  0.75000
E78   E   0.54613  0.12500  0.70387
E79   E   0.54613  0.87500  0.79613
E80   E   0.54775  0.42113  0.01535
E81   E   0.54775  0.57887  0.48465
E82   E   0.57725  0.17275  0.87500
E83   E   0.57725  0.82725  0.62500
E84   E   0.57887  0.48465  0.54775
E85   E   0.57887  0.51535  0.95225
E86   E   0.62500  0.20387  0.04613
E87   E   0.62500  0.20387  0.04613
E88   E   0.62500  0.42275  0.67275
E89   E   0.62500  0.57725  0.82725
E90   E   0.62500  0.79613  0.45387
E91   E   0.67113  0.29775  0.73465
E92   E   0.67113  0.70225  0.76535
E93   E   0.67275  0.37500  0.07725
E94   E   0.67275  0.37500  0.07725
E95   E   0.67275  0.62500  0.42275
E96   E   0.70225  0.23465  0.82887
E97   E   0.70225  0.76535  0.67113
E98   E   0.70387  0.45387  0.37500
E99   E   0.70387  0.54613  0.12500
E100  E   0.73424  0.50000  0.75000
E101  E   0.73465  0.32887  0.20225
E102  E   0.73465  0.67113  0.29775
E103  E   0.75000  0.26576  0.00000
E104  E   0.75000  0.48424  0.00000
E105  E   0.75000  0.51576  0.50000
E106  E   0.75000  0.73424  0.50000
E107  E   0.76535  0.32887  0.79775
E108  E   0.76535  0.67113  0.70225
E109  E   0.76576  0.50000  0.25000
E110  E   0.79613  0.45387  0.62500
E111  E   0.79613  0.54613  0.87500
E112  E   0.79775  0.23465  0.17113
E113  E   0.79775  0.76535  0.32887
E114  E   0.82725  0.37500  0.92275
E115  E   0.82725  0.62500  0.57725
E116  E   0.82887  0.29775  0.26535
E117  E   0.82887  0.70225  0.23465
E118  E   0.87500  0.20387  0.95387
E119  E   0.87500  0.42275  0.32725
E120  E   0.87500  0.57725  0.17275
E121  E   0.87500  0.79613  0.54613
E122  E   0.92113  0.48465  0.45225
E123  E   0.92113  0.51535  0.04775
E124  E   0.92275  0.17275  0.12500
E125  E   0.92275  0.82725  0.37500
E126  E   0.95225  0.42113  0.98465
E127  E   0.95225  0.57887  0.51535
E128  E   0.95387  0.12500  0.29613
E129  E   0.95387  0.87500  0.20387
E130  E   0.98424  0.50000  0.25000
E131  E   0.98465  0.04775  0.07887
E132  E   0.98465  0.95225  0.42113
loop_
