data_fcs_I-43d  hall_number: 516, V_con: 5
_audit_creation_date              2025-03-05
_audit_creation_method            'MOFbuilder_1.0'
_symmetry_space_group_name_H-M    'P1'
_symmetry_Int_Tables_number       1
_symmetry_cell_setting            triclinic
loop_
_symmetry_equiv_pos_as_xyz
  x,y,z
_cell_length_a                    37.2868
_cell_length_b                    37.2868
_cell_length_c                    37.2868
_cell_angle_alpha                 90.0
_cell_angle_beta                  90.0
_cell_angle_gamma                 90.0
loop_
_atom_site_label
_atom_site_type_symbol
_atom_site_fract_x
_atom_site_fract_y
_atom_site_fract_z
V1    V   0.04039  0.12213  0.66796
V2    V   0.04039  0.87787  0.83204
V3    V   0.08204  0.12787  0.29039
V4    V   0.08204  0.87213  0.20961
V5    V   0.12213  0.33204  0.45961
V6    V   0.12213  0.66796  0.04039
V7    V   0.12787  0.29039  0.08204
V8    V   0.12787  0.70961  0.41796
V9    V   0.16796  0.45961  0.87787
V10   V   0.16796  0.54039  0.62213
V11   V   0.20961  0.08204  0.87213
V12   V   0.20961  0.91796  0.62787
V13   V   0.29039  0.08204  0.12787
V14   V   0.29039  0.91796  0.37213
V15   V   0.33204  0.45961  0.12213
V16   V   0.33204  0.54039  0.37787
V17   V   0.37213  0.29039  0.91796
V18   V   0.37213  0.70961  0.58204
V19   V   0.37787  0.33204  0.54039
V20   V   0.37787  0.66796  0.95961
V21   V   0.41796  0.12787  0.70961
V22   V   0.41796  0.87213  0.79039
V23   V   0.45961  0.12213  0.33204
V24   V   0.45961  0.87787  0.16796
V25   V   0.54039  0.37787  0.33204
V26   V   0.54039  0.62213  0.16796
V27   V   0.58204  0.37213  0.70961
V28   V   0.58204  0.62787  0.79039
V29   V   0.62213  0.16796  0.54039
V30   V   0.62213  0.83204  0.95961
V31   V   0.62787  0.20961  0.91796
V32   V   0.62787  0.79039  0.58204
V33   V   0.66796  0.04039  0.12213
V34   V   0.66796  0.95961  0.37787
V35   V   0.70961  0.41796  0.12787
V36   V   0.70961  0.58204  0.37213
V37   V   0.79039  0.41796  0.87213
V38   V   0.79039  0.58204  0.62787
V39   V   0.83204  0.04039  0.87787
V40   V   0.83204  0.95961  0.62213
V41   V   0.87213  0.20961  0.08204
V42   V   0.87213  0.79039  0.41796
V43   V   0.87787  0.16796  0.45961
V44   V   0.87787  0.83204  0.04039
V45   V   0.91796  0.37213  0.29039
V46   V   0.91796  0.62787  0.20961
V47   V   0.95961  0.37787  0.66796
V48   V   0.95961  0.62213  0.83204
E1    E   0.00000  0.25000  0.08204
E2    E   0.00000  0.25000  0.66796
E3    E   0.00000  0.75000  0.41796
E4    E   0.00000  0.75000  0.83204
E5    E   0.02005  0.35208  0.37500
E6    E   0.02005  0.64792  0.12500
E7    E   0.04087  0.35495  0.56378
E8    E   0.04087  0.64505  0.93622
E9    E   0.06378  0.45913  0.64505
E10   E   0.06378  0.54087  0.85495
E11   E   0.08204  0.00000  0.25000
E12   E   0.10208  0.22995  0.37500
E13   E   0.10208  0.77005  0.12500
E14   E   0.10495  0.20913  0.18622
E15   E   0.10495  0.79087  0.31378
E16   E   0.12500  0.02005  0.64792
E17   E   0.12500  0.10208  0.77005
E18   E   0.12500  0.89792  0.72995
E19   E   0.12500  0.97995  0.85208
E20   E   0.14505  0.43622  0.54087
E21   E   0.14505  0.56378  0.95913
E22   E   0.14792  0.37500  0.97995
E23   E   0.14792  0.62500  0.52005
E24   E   0.16796  0.50000  0.75000
E25   E   0.18622  0.10495  0.20913
E26   E   0.18622  0.89505  0.29087
E27   E   0.20913  0.18622  0.10495
E28   E   0.20913  0.81378  0.39505
E29   E   0.22995  0.37500  0.10208
E30   E   0.22995  0.62500  0.39792
E31   E   0.25000  0.08204  0.00000
E32   E   0.25000  0.33204  0.50000
E33   E   0.25000  0.66796  0.00000
E34   E   0.25000  0.91796  0.50000
E35   E   0.27005  0.37500  0.89792
E36   E   0.27005  0.62500  0.60208
E37   E   0.29087  0.18622  0.89505
E38   E   0.29087  0.81378  0.60495
E39   E   0.31378  0.10495  0.79087
E40   E   0.31378  0.89505  0.70913
E41   E   0.33204  0.50000  0.25000
E42   E   0.35208  0.37500  0.02005
E43   E   0.35208  0.62500  0.47995
E44   E   0.35495  0.43622  0.45913
E45   E   0.35495  0.56378  0.04087
E46   E   0.37500  0.02005  0.35208
E47   E   0.37500  0.10208  0.22995
E48   E   0.37500  0.89792  0.27005
E49   E   0.37500  0.97995  0.14792
E50   E   0.39505  0.20913  0.81378
E51   E   0.39505  0.79087  0.68622
E52   E   0.39792  0.22995  0.62500
E53   E   0.39792  0.77005  0.87500
E54   E   0.41796  0.00000  0.75000
E55   E   0.43622  0.45913  0.35495
E56   E   0.43622  0.54087  0.14505
E57   E   0.45913  0.35495  0.43622
E58   E   0.45913  0.64505  0.06378
E59   E   0.47995  0.35208  0.62500
E60   E   0.47995  0.64792  0.87500
E61   E   0.50000  0.25000  0.33204
E62   E   0.50000  0.25000  0.91796
E63   E   0.50000  0.75000  0.16796
E64   E   0.50000  0.75000  0.58204
E65   E   0.52005  0.14792  0.62500
E66   E   0.52005  0.85208  0.87500
E67   E   0.54087  0.14505  0.43622
E68   E   0.54087  0.85495  0.06378
E69   E   0.56378  0.04087  0.35495
E70   E   0.56378  0.95913  0.14505
E71   E   0.58204  0.50000  0.75000
E72   E   0.60208  0.27005  0.62500
E73   E   0.60208  0.72995  0.87500
E74   E   0.60495  0.29087  0.81378
E75   E   0.60495  0.70913  0.68622
E76   E   0.62500  0.39792  0.22995
E77   E   0.62500  0.47995  0.35208
E78   E   0.62500  0.52005  0.14792
E79   E   0.62500  0.60208  0.27005
E80   E   0.64505  0.06378  0.45913
E81   E   0.64505  0.93622  0.04087
E82   E   0.64792  0.12500  0.02005
E83   E   0.64792  0.87500  0.47995
E84   E   0.66796  0.00000  0.25000
E85   E   0.68622  0.39505  0.79087
E86   E   0.68622  0.60495  0.70913
E87   E   0.70913  0.31378  0.89505
E88   E   0.70913  0.68622  0.60495
E89   E   0.72995  0.12500  0.89792
E90   E   0.72995  0.87500  0.60208
E91   E   0.75000  0.16796  0.50000
E92   E   0.75000  0.41796  0.00000
E93   E   0.75000  0.58204  0.50000
E94   E   0.75000  0.83204  0.00000
E95   E   0.77005  0.12500  0.10208
E96   E   0.77005  0.87500  0.39792
E97   E   0.79087  0.31378  0.10495
E98   E   0.79087  0.68622  0.39505
E99   E   0.81378  0.39505  0.20913
E100  E   0.81378  0.60495  0.29087
E101  E   0.83204  0.00000  0.75000
E102  E   0.85208  0.12500  0.97995
E103  E   0.85208  0.87500  0.52005
E104  E   0.85495  0.06378  0.54087
E105  E   0.85495  0.93622  0.95913
E106  E   0.87500  0.39792  0.77005
E107  E   0.87500  0.47995  0.64792
E108  E   0.87500  0.52005  0.85208
E109  E   0.87500  0.60208  0.72995
E110  E   0.89505  0.29087  0.18622
E111  E   0.89505  0.70913  0.31378
E112  E   0.89792  0.27005  0.37500
E113  E   0.89792  0.72995  0.12500
E114  E   0.91796  0.50000  0.25000
E115  E   0.93622  0.04087  0.64505
E116  E   0.93622  0.95913  0.85495
E117  E   0.95913  0.14505  0.56378
E118  E   0.95913  0.85495  0.93622
E119  E   0.97995  0.14792  0.37500
E120  E   0.97995  0.85208  0.12500
loop_
