data_fgl_R-3c:H  hall_number: 167, V_con: 4, EC_con: 4
_audit_creation_date              2025-03-05
_audit_creation_method            'MOFbuilder_1.0'
_symmetry_space_group_name_H-M    'P1'
_symmetry_Int_Tables_number       1
_symmetry_cell_setting            triclinic
loop_
_symmetry_equiv_pos_as_xyz
  x,y,z
_cell_length_a                    50.595800000000004
_cell_length_b                    50.595800000000004
_cell_length_c                    30.984699999999997
_cell_angle_alpha                 90.0
_cell_angle_beta                  90.0
_cell_angle_gamma                 120.0
loop_
_atom_site_label
_atom_site_type_symbol
_atom_site_fract_x
_atom_site_fract_y
_atom_site_fract_z
V1    V   0.00000  0.00000  0.50000
V2    V   0.00000  0.50000  0.00000
V3    V   0.50000  0.00000  0.50000
V4    V   0.50000  0.50000  0.00000
EC1    EC   0.00000  0.62500  0.25000
EC2    EC   0.00000  0.87500  0.75000
EC3    EC   0.50000  0.12500  0.25000
EC4    EC   0.50000  0.37500  0.75000
E1    E   0.00000  0.06250  0.37500
E2    E   0.00000  0.43750  0.87500
E3    E   0.02084  0.08333  0.54167
E4    E   0.02084  0.41667  0.04167
E5    E   0.50000  0.56250  0.12500
E6    E   0.50000  0.93750  0.62500
E7    E   0.52084  0.58333  0.95833
E8    E   0.52084  0.91667  0.45833
loop_
