data_fiq_Pa-3  hall_number: 501, V_con: 5, EC_con: 4
_audit_creation_date              2025-03-05
_audit_creation_method            'MOFbuilder_1.0'
_symmetry_space_group_name_H-M    'P1'
_symmetry_Int_Tables_number       1
_symmetry_cell_setting            triclinic
loop_
_symmetry_equiv_pos_as_xyz
  x,y,z
_cell_length_a                    27.320500000000003
_cell_length_b                    27.320500000000003
_cell_length_c                    27.320500000000003
_cell_angle_alpha                 90.0
_cell_angle_beta                  90.0
_cell_angle_gamma                 90.0
loop_
_atom_site_label
_atom_site_type_symbol
_atom_site_fract_x
_atom_site_fract_y
_atom_site_fract_z
V1    V   0.10566  0.10566  0.10566
V2    V   0.10566  0.39434  0.60566
V3    V   0.39434  0.60566  0.10566
V4    V   0.39434  0.89434  0.60566
V5    V   0.60566  0.10566  0.39434
V6    V   0.60566  0.39434  0.89434
V7    V   0.89434  0.60566  0.39434
V8    V   0.89434  0.89434  0.89434
EC1    EC   0.18301  0.68301  0.81699
EC2    EC   0.18301  0.81699  0.31699
EC3    EC   0.31699  0.18301  0.81699
EC4    EC   0.31699  0.31699  0.31699
EC5    EC   0.68301  0.68301  0.68301
EC6    EC   0.68301  0.81699  0.18301
EC7    EC   0.81699  0.18301  0.68301
EC8    EC   0.81699  0.31699  0.18301
E1    E   0.00000  0.00000  0.00000
E2    E   0.00000  0.50000  0.50000
E3    E   0.03868  0.71132  0.35566
E4    E   0.03868  0.78868  0.85566
E5    E   0.14434  0.53868  0.71132
E6    E   0.14434  0.96132  0.21132
E7    E   0.21132  0.14434  0.96132
E8    E   0.21132  0.21132  0.21132
E9    E   0.21132  0.28868  0.71132
E10   E   0.21132  0.35566  0.46132
E11   E   0.28868  0.64434  0.96132
E12   E   0.28868  0.71132  0.21132
E13   E   0.28868  0.78868  0.71132
E14   E   0.28868  0.85566  0.46132
E15   E   0.35566  0.03868  0.71132
E16   E   0.35566  0.46132  0.21132
E17   E   0.46132  0.21132  0.35566
E18   E   0.46132  0.28868  0.85566
E19   E   0.50000  0.00000  0.50000
E20   E   0.50000  0.50000  0.00000
E21   E   0.53868  0.71132  0.14434
E22   E   0.53868  0.78868  0.64434
E23   E   0.64434  0.53868  0.78868
E24   E   0.64434  0.96132  0.28868
E25   E   0.71132  0.14434  0.53868
E26   E   0.71132  0.21132  0.28868
E27   E   0.71132  0.28868  0.78868
E28   E   0.71132  0.35566  0.03868
E29   E   0.78868  0.64434  0.53868
E30   E   0.78868  0.71132  0.28868
E31   E   0.78868  0.78868  0.78868
E32   E   0.78868  0.85566  0.03868
E33   E   0.85566  0.03868  0.78868
E34   E   0.85566  0.46132  0.28868
E35   E   0.96132  0.21132  0.14434
E36   E   0.96132  0.28868  0.64434
loop_
