data_fla_Fm-3m  hall_number: 523, V_con: 8, EC_con: 4
_audit_creation_date              2025-03-05
_audit_creation_method            'MOFbuilder_1.0'
_symmetry_space_group_name_H-M    'P1'
_symmetry_Int_Tables_number       1
_symmetry_cell_setting            triclinic
loop_
_symmetry_equiv_pos_as_xyz
  x,y,z
_cell_length_a                    37.2362
_cell_length_b                    37.2362
_cell_length_c                    37.2362
_cell_angle_alpha                 90.0
_cell_angle_beta                  90.0
_cell_angle_gamma                 90.0
loop_
_atom_site_label
_atom_site_type_symbol
_atom_site_fract_x
_atom_site_fract_y
_atom_site_fract_z
V1    V   0.00000  0.00000  0.00000
V2    V   0.00000  0.50000  0.50000
V3    V   0.50000  0.00000  0.50000
V4    V   0.50000  0.50000  0.00000
EC1    EC   0.15505  0.15505  0.15505
EC2    EC   0.15505  0.15505  0.84495
EC3    EC   0.15505  0.34495  0.34495
EC4    EC   0.15505  0.34495  0.65505
EC5    EC   0.15505  0.65505  0.34495
EC6    EC   0.15505  0.65505  0.65505
EC7    EC   0.15505  0.84495  0.15505
EC8    EC   0.15505  0.84495  0.84495
EC9    EC   0.34495  0.15505  0.34495
EC10   EC   0.34495  0.15505  0.65505
EC11   EC   0.34495  0.34495  0.15505
EC12   EC   0.34495  0.34495  0.84495
EC13   EC   0.34495  0.65505  0.15505
EC14   EC   0.34495  0.65505  0.84495
EC15   EC   0.34495  0.84495  0.34495
EC16   EC   0.34495  0.84495  0.65505
EC17   EC   0.65505  0.15505  0.34495
EC18   EC   0.65505  0.15505  0.65505
EC19   EC   0.65505  0.34495  0.15505
EC20   EC   0.65505  0.34495  0.84495
EC21   EC   0.65505  0.65505  0.15505
EC22   EC   0.65505  0.65505  0.84495
EC23   EC   0.65505  0.84495  0.34495
EC24   EC   0.65505  0.84495  0.65505
EC25   EC   0.84495  0.15505  0.15505
EC26   EC   0.84495  0.15505  0.84495
EC27   EC   0.84495  0.34495  0.34495
EC28   EC   0.84495  0.34495  0.65505
EC29   EC   0.84495  0.65505  0.34495
EC30   EC   0.84495  0.65505  0.65505
EC31   EC   0.84495  0.84495  0.15505
EC32   EC   0.84495  0.84495  0.84495
E1    E   0.07753  0.07753  0.07753
E2    E   0.07753  0.07753  0.92247
E3    E   0.07753  0.42247  0.42247
E4    E   0.07753  0.42247  0.57753
E5    E   0.07753  0.57753  0.42247
E6    E   0.07753  0.57753  0.57753
E7    E   0.07753  0.92247  0.07753
E8    E   0.07753  0.92247  0.92247
E9    E   0.15505  0.25000  0.25000
E10   E   0.15505  0.25000  0.75000
E11   E   0.15505  0.75000  0.25000
E12   E   0.15505  0.75000  0.75000
E13   E   0.25000  0.15505  0.25000
E14   E   0.25000  0.15505  0.75000
E15   E   0.25000  0.25000  0.15505
E16   E   0.25000  0.25000  0.34495
E17   E   0.25000  0.25000  0.65505
E18   E   0.25000  0.25000  0.84495
E19   E   0.25000  0.34495  0.25000
E20   E   0.25000  0.34495  0.75000
E21   E   0.25000  0.65505  0.25000
E22   E   0.25000  0.65505  0.75000
E23   E   0.25000  0.75000  0.15505
E24   E   0.25000  0.75000  0.34495
E25   E   0.25000  0.75000  0.65505
E26   E   0.25000  0.75000  0.84495
E27   E   0.25000  0.84495  0.25000
E28   E   0.25000  0.84495  0.75000
E29   E   0.34495  0.25000  0.25000
E30   E   0.34495  0.25000  0.75000
E31   E   0.34495  0.75000  0.25000
E32   E   0.34495  0.75000  0.75000
E33   E   0.42247  0.07753  0.42247
E34   E   0.42247  0.07753  0.57753
E35   E   0.42247  0.42247  0.07753
E36   E   0.42247  0.42247  0.92247
E37   E   0.42247  0.57753  0.07753
E38   E   0.42247  0.57753  0.92247
E39   E   0.42247  0.92247  0.42247
E40   E   0.42247  0.92247  0.57753
E41   E   0.57753  0.07753  0.42247
E42   E   0.57753  0.07753  0.57753
E43   E   0.57753  0.42247  0.07753
E44   E   0.57753  0.42247  0.92247
E45   E   0.57753  0.57753  0.07753
E46   E   0.57753  0.57753  0.92247
E47   E   0.57753  0.92247  0.42247
E48   E   0.57753  0.92247  0.57753
E49   E   0.65505  0.25000  0.25000
E50   E   0.65505  0.25000  0.75000
E51   E   0.65505  0.75000  0.25000
E52   E   0.65505  0.75000  0.75000
E53   E   0.75000  0.15505  0.25000
E54   E   0.75000  0.15505  0.75000
E55   E   0.75000  0.25000  0.15505
E56   E   0.75000  0.25000  0.34495
E57   E   0.75000  0.25000  0.65505
E58   E   0.75000  0.25000  0.84495
E59   E   0.75000  0.34495  0.25000
E60   E   0.75000  0.34495  0.75000
E61   E   0.75000  0.65505  0.25000
E62   E   0.75000  0.65505  0.75000
E63   E   0.75000  0.75000  0.15505
E64   E   0.75000  0.75000  0.34495
E65   E   0.75000  0.75000  0.65505
E66   E   0.75000  0.75000  0.84495
E67   E   0.75000  0.84495  0.25000
E68   E   0.75000  0.84495  0.75000
E69   E   0.84495  0.25000  0.25000
E70   E   0.84495  0.25000  0.75000
E71   E   0.84495  0.75000  0.25000
E72   E   0.84495  0.75000  0.75000
E73   E   0.92247  0.07753  0.07753
E74   E   0.92247  0.07753  0.92247
E75   E   0.92247  0.42247  0.42247
E76   E   0.92247  0.42247  0.57753
E77   E   0.92247  0.57753  0.42247
E78   E   0.92247  0.57753  0.57753
E79   E   0.92247  0.92247  0.07753
E80   E   0.92247  0.92247  0.92247
loop_
