data_fmz_R-3c:H  hall_number: 167, V_con: 6, EC_con: 3
_audit_creation_date              2025-03-05
_audit_creation_method            'MOFbuilder_1.0'
_symmetry_space_group_name_H-M    'P1'
_symmetry_Int_Tables_number       1
_symmetry_cell_setting            triclinic
loop_
_symmetry_equiv_pos_as_xyz
  x,y,z
_cell_length_a                    32.878099999999996
_cell_length_b                    32.878099999999996
_cell_length_c                    74.8739
_cell_angle_alpha                 90.0
_cell_angle_beta                  90.0
_cell_angle_gamma                 120.0
loop_
_atom_site_label
_atom_site_type_symbol
_atom_site_fract_x
_atom_site_fract_y
_atom_site_fract_z
V1    V   0.00000  0.62589  0.25000
V2    V   0.00000  0.87411  0.75000
V3    V   0.50000  0.12589  0.25000
V4    V   0.50000  0.37411  0.75000
EC1    EC   0.23596  0.20709  0.13499
EC2    EC   0.23596  0.29291  0.63499
EC3    EC   0.73596  0.70709  0.36501
EC4    EC   0.73596  0.79291  0.86501
E1    E   0.01443  0.70940  0.30751
E2    E   0.01443  0.79060  0.80751
E3    E   0.06312  0.52830  0.27583
E4    E   0.06312  0.97170  0.77583
E5    E   0.15223  0.74983  0.27583
E6    E   0.15223  0.75017  0.77583
E7    E   0.51443  0.20940  0.19249
E8    E   0.51443  0.29060  0.69249
E9    E   0.56312  0.02830  0.22417
E10   E   0.56312  0.47170  0.72417
E11   E   0.65223  0.24983  0.22417
E12   E   0.65223  0.25017  0.72417
loop_
