data_fnq_R-3m:H  hall_number: 166, V_con: 5
_audit_creation_date              2025-03-05
_audit_creation_method            'MOFbuilder_1.0'
_symmetry_space_group_name_H-M    'P1'
_symmetry_Int_Tables_number       1
_symmetry_cell_setting            triclinic
loop_
_symmetry_equiv_pos_as_xyz
  x,y,z
_cell_length_a                    31.404999999999998
_cell_length_b                    31.404999999999998
_cell_length_c                    23.037999999999997
_cell_angle_alpha                 90.0
_cell_angle_beta                  90.0
_cell_angle_gamma                 120.0
loop_
_atom_site_label
_atom_site_type_symbol
_atom_site_fract_x
_atom_site_fract_y
_atom_site_fract_z
V1    V   0.15411  0.30822  0.11833
V2    V   0.15411  0.80822  0.38167
V3    V   0.65411  0.19178  0.61833
V4    V   0.65411  0.69178  0.88167
E1    E   0.16667  0.33333  0.33333
E2    E   0.16667  0.83333  0.16667
E3    E   0.23117  0.23117  0.00000
E4    E   0.23117  0.73117  0.50000
E5    E   0.33333  0.39783  0.16667
E6    E   0.33333  0.89783  0.33333
E7    E   0.66667  0.16667  0.83333
E8    E   0.66667  0.66667  0.66667
E9    E   0.73117  0.26883  0.50000
E10   E   0.73117  0.76883  0.00000
E11   E   0.83333  0.10217  0.66667
E12   E   0.83333  0.60217  0.83333
loop_
