data_fnr_P63/mmc  hall_number: 488, V_con: 5
_audit_creation_date              2025-03-05
_audit_creation_method            'MOFbuilder_1.0'
_symmetry_space_group_name_H-M    'P1'
_symmetry_Int_Tables_number       1
_symmetry_cell_setting            triclinic
loop_
_symmetry_equiv_pos_as_xyz
  x,y,z
_cell_length_a                    25.4773
_cell_length_b                    25.4773
_cell_length_c                    28.9781
_cell_angle_alpha                 90.0
_cell_angle_beta                  90.0
_cell_angle_gamma                 120.0
loop_
_atom_site_label
_atom_site_type_symbol
_atom_site_fract_x
_atom_site_fract_y
_atom_site_fract_z
V1    V   0.20250  0.40500  0.57746
V2    V   0.20250  0.40500  0.92254
V3    V   0.20250  0.79750  0.57746
V4    V   0.20250  0.79750  0.92254
V5    V   0.40500  0.20250  0.07746
V6    V   0.40500  0.20250  0.42254
V7    V   0.59500  0.79750  0.57746
V8    V   0.59500  0.79750  0.92254
V9    V   0.79750  0.20250  0.07746
V10   V   0.79750  0.20250  0.42254
V11   V   0.79750  0.59500  0.07746
V12   V   0.79750  0.59500  0.42254
E1    E   0.00000  0.30375  0.00000
E2    E   0.00000  0.30375  0.50000
E3    E   0.00000  0.69625  0.00000
E4    E   0.00000  0.69625  0.50000
E5    E   0.20250  0.40500  0.75000
E6    E   0.20250  0.60125  0.57746
E7    E   0.20250  0.60125  0.92254
E8    E   0.20250  0.60125  0.57746
E9    E   0.20250  0.60125  0.92254
E10   E   0.20250  0.79750  0.75000
E11   E   0.30375  0.00000  0.00000
E12   E   0.30375  0.00000  0.50000
E13   E   0.30375  0.30375  0.00000
E14   E   0.30375  0.30375  0.50000
E15   E   0.39875  0.60125  0.57746
E16   E   0.39875  0.60125  0.92254
E17   E   0.39875  0.79750  0.57746
E18   E   0.39875  0.79750  0.92254
E19   E   0.39875  0.60125  0.57746
E20   E   0.39875  0.60125  0.92254
E21   E   0.39875  0.79750  0.57746
E22   E   0.39875  0.79750  0.92254
E23   E   0.40500  0.20250  0.25000
E24   E   0.59500  0.79750  0.75000
E25   E   0.60125  0.20250  0.07746
E26   E   0.60125  0.20250  0.42254
E27   E   0.60125  0.39875  0.07746
E28   E   0.60125  0.39875  0.42254
E29   E   0.60125  0.20250  0.07746
E30   E   0.60125  0.20250  0.42254
E31   E   0.60125  0.39875  0.07746
E32   E   0.60125  0.39875  0.42254
E33   E   0.69625  0.00000  0.00000
E34   E   0.69625  0.00000  0.50000
E35   E   0.69625  0.69625  0.00000
E36   E   0.69625  0.69625  0.50000
E37   E   0.79750  0.20250  0.25000
E38   E   0.79750  0.39875  0.07746
E39   E   0.79750  0.39875  0.42254
E40   E   0.79750  0.39875  0.07746
E41   E   0.79750  0.39875  0.42254
E42   E   0.79750  0.59500  0.25000
loop_
