data_fns_P6222  hall_number: 474, V_con: 5
_audit_creation_date              2025-03-05
_audit_creation_method            'MOFbuilder_1.0'
_symmetry_space_group_name_H-M    'P1'
_symmetry_Int_Tables_number       1
_symmetry_cell_setting            triclinic
loop_
_symmetry_equiv_pos_as_xyz
  x,y,z
_cell_length_a                    36.1766
_cell_length_b                    36.1766
_cell_length_c                    10.0
_cell_angle_alpha                 90.0
_cell_angle_beta                  90.0
_cell_angle_gamma                 120.0
loop_
_atom_site_label
_atom_site_type_symbol
_atom_site_fract_x
_atom_site_fract_y
_atom_site_fract_z
V1    V   0.15959  0.57979  0.16666
V2    V   0.15959  0.57980  0.16667
V3    V   0.42020  0.57979  0.83334
V4    V   0.42020  0.84041  0.50000
V5    V   0.42021  0.57980  0.83333
V6    V   0.42021  0.84041  0.50000
V7    V   0.57979  0.15959  0.50000
V8    V   0.57979  0.42020  0.83333
V9    V   0.57980  0.15959  0.50000
V10   V   0.57980  0.42021  0.83334
V11   V   0.84041  0.42020  0.16667
V12   V   0.84041  0.42021  0.16666
E1    E   0.00000  0.50000  0.16666
E2    E   0.00000  0.50000  0.16667
E3    E   0.15959  0.57979  0.66666
E4    E   0.15959  0.57980  0.66667
E5    E   0.28990  0.57980  0.00000
E6    E   0.28990  0.71010  0.33333
E7    E   0.42020  0.57979  0.33334
E8    E   0.42020  0.71010  0.66667
E9    E   0.42020  0.84041  1.00000
E10   E   0.42021  0.57980  0.33333
E11   E   0.42021  0.84041  0.00000
E12   E   0.50000  0.00000  0.50000
E13   E   0.50000  0.00000  0.50000
E14   E   0.50000  0.50000  0.83333
E15   E   0.50000  0.50000  0.83334
E16   E   0.57979  0.15959  0.00000
E17   E   0.57979  0.42020  0.33333
E18   E   0.57980  0.15959  1.00000
E19   E   0.57980  0.28990  0.66667
E20   E   0.57980  0.42021  0.33334
E21   E   0.71010  0.28990  0.33333
E22   E   0.71010  0.42020  0.00000
E23   E   0.84041  0.42020  0.66667
E24   E   0.84041  0.42021  0.66666
loop_
