data_fnv_P62  hall_number: 465, V_con: 5
_audit_creation_date              2025-03-05
_audit_creation_method            'MOFbuilder_1.0'
_symmetry_space_group_name_H-M    'P1'
_symmetry_Int_Tables_number       1
_symmetry_cell_setting            triclinic
loop_
_symmetry_equiv_pos_as_xyz
  x,y,z
_cell_length_a                    21.8351
_cell_length_b                    21.8351
_cell_length_c                    17.8352
_cell_angle_alpha                 90.0
_cell_angle_beta                  90.0
_cell_angle_gamma                 120.0
loop_
_atom_site_label
_atom_site_type_symbol
_atom_site_fract_x
_atom_site_fract_y
_atom_site_fract_z
V1    V   0.18113  0.75739  0.33333
V2    V   0.24261  0.42374  0.00000
V3    V   0.42374  0.18113  0.66667
V4    V   0.57626  0.81887  0.66667
V5    V   0.75739  0.57626  0.00000
V6    V   0.81887  0.24261  0.33333
E1    E   0.00000  0.50000  0.33333
E2    E   0.03075  0.33318  0.16666
E3    E   0.21187  0.59056  0.16667
E4    E   0.30243  0.96925  0.50000
E5    E   0.33318  0.30243  0.83333
E6    E   0.37869  0.78813  0.50000
E7    E   0.40944  0.62131  0.83334
E8    E   0.50000  0.00000  0.66667
E9    E   0.50000  0.50000  0.00000
E10   E   0.59056  0.37869  0.83334
E11   E   0.62131  0.21187  0.50000
E12   E   0.66682  0.69757  0.83333
E13   E   0.69757  0.03075  0.50000
E14   E   0.78813  0.40944  0.16667
E15   E   0.96925  0.66682  0.16666
loop_
