data_fnx_P4122  hall_number: 368, V_con: 5
_audit_creation_date              2025-03-05
_audit_creation_method            'MOFbuilder_1.0'
_symmetry_space_group_name_H-M    'P1'
_symmetry_Int_Tables_number       1
_symmetry_cell_setting            triclinic
loop_
_symmetry_equiv_pos_as_xyz
  x,y,z
_cell_length_a                    15.9933
_cell_length_b                    15.9933
_cell_length_c                    22.7007
_cell_angle_alpha                 90.0
_cell_angle_beta                  90.0
_cell_angle_gamma                 90.0
loop_
_atom_site_label
_atom_site_type_symbol
_atom_site_fract_x
_atom_site_fract_y
_atom_site_fract_z
V1    V   0.18868  0.31132  0.77014
V2    V   0.18868  0.68868  0.72986
V3    V   0.31132  0.18868  0.97986
V4    V   0.31132  0.81132  0.52014
V5    V   0.68868  0.18868  0.02014
V6    V   0.68868  0.81132  0.47986
V7    V   0.81132  0.31132  0.22986
V8    V   0.81132  0.68868  0.27014
E1    E   0.00000  0.18868  0.00000
E2    E   0.00000  0.81132  0.50000
E3    E   0.06132  0.25000  0.10486
E4    E   0.06132  0.75000  0.39514
E5    E   0.18868  0.00000  0.75000
E6    E   0.25000  0.06132  0.64514
E7    E   0.25000  0.43868  0.85486
E8    E   0.25000  0.56132  0.64514
E9    E   0.25000  0.93868  0.85486
E10   E   0.43868  0.25000  0.89514
E11   E   0.43868  0.75000  0.60486
E12   E   0.56132  0.25000  0.10486
E13   E   0.56132  0.75000  0.39514
E14   E   0.75000  0.06132  0.35486
E15   E   0.75000  0.43868  0.14514
E16   E   0.75000  0.56132  0.35486
E17   E   0.75000  0.93868  0.14514
E18   E   0.81132  0.00000  0.25000
E19   E   0.93868  0.25000  0.89514
E20   E   0.93868  0.75000  0.60486
loop_
