data_fnz_P6/mcc  hall_number: 486, V_con: 5
_audit_creation_date              2025-03-05
_audit_creation_method            'MOFbuilder_1.0'
_symmetry_space_group_name_H-M    'P1'
_symmetry_Int_Tables_number       1
_symmetry_cell_setting            triclinic
loop_
_symmetry_equiv_pos_as_xyz
  x,y,z
_cell_length_a                    27.682299999999998
_cell_length_b                    27.682299999999998
_cell_length_c                    17.364900000000002
_cell_angle_alpha                 90.0
_cell_angle_beta                  90.0
_cell_angle_gamma                 120.0
loop_
_atom_site_label
_atom_site_type_symbol
_atom_site_fract_x
_atom_site_fract_y
_atom_site_fract_z
V1    V   0.11243  0.40409  0.50000
V2    V   0.11243  0.70834  0.00000
V3    V   0.29166  0.40409  0.00000
V4    V   0.29166  0.88757  0.50000
V5    V   0.40409  0.11243  0.00000
V6    V   0.40409  0.29166  0.50000
V7    V   0.59591  0.70834  0.50000
V8    V   0.59591  0.88757  0.00000
V9    V   0.70834  0.11243  0.50000
V10   V   0.70834  0.59591  0.00000
V11   V   0.88757  0.29166  0.00000
V12   V   0.88757  0.59591  0.50000
E1    E   0.00000  0.50000  0.00000
E2    E   0.00000  0.50000  0.50000
E3    E   0.08961  0.34787  0.00000
E4    E   0.08961  0.74174  0.50000
E5    E   0.20204  0.40409  0.25000
E6    E   0.20204  0.40409  0.75000
E7    E   0.20204  0.79795  0.25000
E8    E   0.20204  0.79795  0.75000
E9    E   0.20205  0.40409  0.25000
E10   E   0.20205  0.40409  0.75000
E11   E   0.20205  0.79796  0.25000
E12   E   0.20205  0.79796  0.75000
E13   E   0.25826  0.34787  0.50000
E14   E   0.25826  0.91039  0.00000
E15   E   0.34787  0.08961  0.50000
E16   E   0.34787  0.25826  0.00000
E17   E   0.40409  0.20204  0.25000
E18   E   0.40409  0.20204  0.75000
E19   E   0.40409  0.20205  0.25000
E20   E   0.40409  0.20205  0.75000
E21   E   0.50000  0.00000  0.00000
E22   E   0.50000  0.00000  0.50000
E23   E   0.50000  0.50000  0.00000
E24   E   0.50000  0.50000  0.50000
E25   E   0.59591  0.79795  0.25000
E26   E   0.59591  0.79795  0.75000
E27   E   0.59591  0.79796  0.25000
E28   E   0.59591  0.79796  0.75000
E29   E   0.65213  0.74174  0.00000
E30   E   0.65213  0.91039  0.50000
E31   E   0.74174  0.08961  0.00000
E32   E   0.74174  0.65213  0.50000
E33   E   0.79795  0.20204  0.25000
E34   E   0.79795  0.20204  0.75000
E35   E   0.79795  0.59591  0.25000
E36   E   0.79795  0.59591  0.75000
E37   E   0.79796  0.20205  0.25000
E38   E   0.79796  0.20205  0.75000
E39   E   0.79796  0.59591  0.25000
E40   E   0.79796  0.59591  0.75000
E41   E   0.91039  0.25826  0.50000
E42   E   0.91039  0.65213  0.00000
loop_
