data_frl_Cmmm  hall_number: 310, V_con: 4, EC_con: 4
_audit_creation_date              2025-03-05
_audit_creation_method            'MOFbuilder_1.0'
_symmetry_space_group_name_H-M    'P1'
_symmetry_Int_Tables_number       1
_symmetry_cell_setting            triclinic
loop_
_symmetry_equiv_pos_as_xyz
  x,y,z
_cell_length_a                    38.811499999999995
_cell_length_b                    18.1969
_cell_length_c                    22.9324
_cell_angle_alpha                 90.0
_cell_angle_beta                  90.0
_cell_angle_gamma                 90.0
loop_
_atom_site_label
_atom_site_type_symbol
_atom_site_fract_x
_atom_site_fract_y
_atom_site_fract_z
V1    V   0.00000  0.00000  0.00000
V2    V   0.50000  0.50000  0.00000
EC1    EC   0.19654  0.00000  0.28197
EC2    EC   0.19654  0.00000  0.71803
EC3    EC   0.30346  0.50000  0.28197
EC4    EC   0.30346  0.50000  0.71803
EC5    EC   0.69654  0.50000  0.28197
EC6    EC   0.69654  0.50000  0.71803
EC7    EC   0.80346  0.00000  0.28197
EC8    EC   0.80346  0.00000  0.71803
E1    E   0.09827  0.00000  0.14098
E2    E   0.09827  0.00000  0.85902
E3    E   0.19654  0.00000  0.50000
E4    E   0.25000  0.25000  0.28197
E5    E   0.25000  0.25000  0.71803
E6    E   0.25000  0.75000  0.28197
E7    E   0.25000  0.75000  0.71803
E8    E   0.30346  0.50000  0.50000
E9    E   0.40173  0.50000  0.14098
E10   E   0.40173  0.50000  0.85902
E11   E   0.59827  0.50000  0.14098
E12   E   0.59827  0.50000  0.85902
E13   E   0.69654  0.50000  0.50000
E14   E   0.75000  0.25000  0.28197
E15   E   0.75000  0.25000  0.71803
E16   E   0.75000  0.75000  0.28197
E17   E   0.75000  0.75000  0.71803
E18   E   0.80346  0.00000  0.50000
E19   E   0.90173  0.00000  0.14098
E20   E   0.90173  0.00000  0.85902
loop_
