data_fsa_P6/mmm  hall_number: 485, V_con: 6, EC_con: 4
_audit_creation_date              2025-03-05
_audit_creation_method            'MOFbuilder_1.0'
_symmetry_space_group_name_H-M    'P1'
_symmetry_Int_Tables_number       1
_symmetry_cell_setting            triclinic
loop_
_symmetry_equiv_pos_as_xyz
  x,y,z
_cell_length_a                    30.895100000000003
_cell_length_b                    30.895100000000003
_cell_length_c                    22.4221
_cell_angle_alpha                 90.0
_cell_angle_beta                  90.0
_cell_angle_gamma                 120.0
loop_
_atom_site_label
_atom_site_type_symbol
_atom_site_fract_x
_atom_site_fract_y
_atom_site_fract_z
V1    V   0.33333  0.66666  0.50000
V2    V   0.33333  0.66667  0.50000
V3    V   0.33334  0.66667  0.50000
V4    V   0.66666  0.33333  0.50000
V5    V   0.66667  0.33333  0.50000
V6    V   0.66667  0.33334  0.50000
EC1    EC   0.18687  0.37375  0.22299
EC2    EC   0.18687  0.37375  0.77701
EC3    EC   0.18687  0.81312  0.22299
EC4    EC   0.18687  0.81312  0.77701
EC5    EC   0.18688  0.37375  0.22299
EC6    EC   0.18688  0.37375  0.77701
EC7    EC   0.18688  0.81313  0.22299
EC8    EC   0.18688  0.81313  0.77701
EC9    EC   0.37375  0.18687  0.22299
EC10   EC   0.37375  0.18687  0.77701
EC11   EC   0.37375  0.18688  0.22299
EC12   EC   0.37375  0.18688  0.77701
EC13   EC   0.62625  0.81312  0.22299
EC14   EC   0.62625  0.81312  0.77701
EC15   EC   0.62625  0.81313  0.22299
EC16   EC   0.62625  0.81313  0.77701
EC17   EC   0.81312  0.18687  0.22299
EC18   EC   0.81312  0.18687  0.77701
EC19   EC   0.81312  0.62625  0.22299
EC20   EC   0.81312  0.62625  0.77701
EC21   EC   0.81313  0.18688  0.22299
EC22   EC   0.81313  0.18688  0.77701
EC23   EC   0.81313  0.62625  0.22299
EC24   EC   0.81313  0.62625  0.77701
E1    E   0.00000  0.28031  0.22299
E2    E   0.00000  0.28031  0.77701
E3    E   0.00000  0.71969  0.22299
E4    E   0.00000  0.71969  0.77701
E5    E   0.18687  0.37375  0.00000
E6    E   0.18687  0.81312  0.00000
E7    E   0.18688  0.37375  0.00000
E8    E   0.18688  0.81313  0.00000
E9    E   0.26010  0.52021  0.36150
E10   E   0.26010  0.52021  0.63850
E11   E   0.26010  0.73989  0.36150
E12   E   0.26010  0.73989  0.63850
E13   E   0.26011  0.52021  0.36150
E14   E   0.26011  0.52021  0.63850
E15   E   0.26011  0.73990  0.36150
E16   E   0.26011  0.73990  0.63850
E17   E   0.28031  0.00000  0.22299
E18   E   0.28031  0.00000  0.77701
E19   E   0.28031  0.28031  0.22299
E20   E   0.28031  0.28031  0.77701
E21   E   0.37375  0.18687  0.00000
E22   E   0.37375  0.18688  0.00000
E23   E   0.47979  0.73989  0.36150
E24   E   0.47979  0.73989  0.63850
E25   E   0.47979  0.73990  0.36150
E26   E   0.47979  0.73990  0.63850
E27   E   0.52021  0.26010  0.36150
E28   E   0.52021  0.26010  0.63850
E29   E   0.52021  0.26011  0.36150
E30   E   0.52021  0.26011  0.63850
E31   E   0.62625  0.81312  0.00000
E32   E   0.62625  0.81313  0.00000
E33   E   0.71969  0.00000  0.22299
E34   E   0.71969  0.00000  0.77701
E35   E   0.71969  0.71969  0.22299
E36   E   0.71969  0.71969  0.77701
E37   E   0.73989  0.26010  0.36150
E38   E   0.73989  0.26010  0.63850
E39   E   0.73989  0.47979  0.36150
E40   E   0.73989  0.47979  0.63850
E41   E   0.73990  0.26011  0.36150
E42   E   0.73990  0.26011  0.63850
E43   E   0.73990  0.47979  0.36150
E44   E   0.73990  0.47979  0.63850
E45   E   0.81312  0.18687  0.00000
E46   E   0.81312  0.62625  0.00000
E47   E   0.81313  0.18688  0.00000
E48   E   0.81313  0.62625  0.00000
loop_
