data_fsx_I4/mmm  hall_number: 424, V_con: 6, EC_con: 5
_audit_creation_date              2025-03-05
_audit_creation_method            'MOFbuilder_1.0'
_symmetry_space_group_name_H-M    'P1'
_symmetry_Int_Tables_number       1
_symmetry_cell_setting            triclinic
loop_
_symmetry_equiv_pos_as_xyz
  x,y,z
_cell_length_a                    13.8218
_cell_length_b                    13.8218
_cell_length_c                    44.2329
_cell_angle_alpha                 90.0
_cell_angle_beta                  90.0
_cell_angle_gamma                 90.0
loop_
_atom_site_label
_atom_site_type_symbol
_atom_site_fract_x
_atom_site_fract_y
_atom_site_fract_z
V1    V   0.00000  0.00000  0.11304
V2    V   0.00000  0.00000  0.88696
V3    V   0.50000  0.50000  0.38696
V4    V   0.50000  0.50000  0.61304
EC1    EC   0.00000  0.00000  0.33912
EC2    EC   0.00000  0.00000  0.66088
EC3    EC   0.50000  0.50000  0.16088
EC4    EC   0.50000  0.50000  0.83912
E1    E   0.00000  0.00000  0.00000
E2    E   0.00000  0.00000  0.22608
E3    E   0.00000  0.00000  0.77392
E4    E   0.25000  0.25000  0.13696
E5    E   0.25000  0.25000  0.36304
E6    E   0.25000  0.25000  0.63696
E7    E   0.25000  0.25000  0.86304
E8    E   0.25000  0.75000  0.13696
E9    E   0.25000  0.75000  0.36304
E10   E   0.25000  0.75000  0.63696
E11   E   0.25000  0.75000  0.86304
E12   E   0.50000  0.50000  0.27392
E13   E   0.50000  0.50000  0.50000
E14   E   0.50000  0.50000  0.72608
E15   E   0.75000  0.25000  0.13696
E16   E   0.75000  0.25000  0.36304
E17   E   0.75000  0.25000  0.63696
E18   E   0.75000  0.25000  0.86304
E19   E   0.75000  0.75000  0.13696
E20   E   0.75000  0.75000  0.36304
E21   E   0.75000  0.75000  0.63696
E22   E   0.75000  0.75000  0.86304
loop_
