data_fte_P4/mmm  hall_number: 400, V_con: 4, EC_con: 4
_audit_creation_date              2025-03-05
_audit_creation_method            'MOFbuilder_1.0'
_symmetry_space_group_name_H-M    'P1'
_symmetry_Int_Tables_number       1
_symmetry_cell_setting            triclinic
loop_
_symmetry_equiv_pos_as_xyz
  x,y,z
_cell_length_a                    40.8197
_cell_length_b                    40.8197
_cell_length_c                    31.038999999999998
_cell_angle_alpha                 90.0
_cell_angle_beta                  90.0
_cell_angle_gamma                 90.0
loop_
_atom_site_label
_atom_site_type_symbol
_atom_site_fract_x
_atom_site_fract_y
_atom_site_fract_z
V1    V   0.12249  0.29572  0.33891
V2    V   0.12249  0.29572  0.66109
V3    V   0.12249  0.70428  0.33891
V4    V   0.12249  0.70428  0.66109
V5    V   0.29572  0.12249  0.33891
V6    V   0.29572  0.12249  0.66109
V7    V   0.29572  0.87751  0.33891
V8    V   0.29572  0.87751  0.66109
V9    V   0.70428  0.12249  0.33891
V10   V   0.70428  0.12249  0.66109
V11   V   0.70428  0.87751  0.33891
V12   V   0.70428  0.87751  0.66109
V13   V   0.87751  0.29572  0.33891
V14   V   0.87751  0.29572  0.66109
V15   V   0.87751  0.70428  0.33891
V16   V   0.87751  0.70428  0.66109
EC1    EC   0.12249  0.50000  0.16109
EC2    EC   0.12249  0.50000  0.83891
EC3    EC   0.50000  0.12249  0.16109
EC4    EC   0.50000  0.12249  0.83891
EC5    EC   0.50000  0.87751  0.16109
EC6    EC   0.50000  0.87751  0.83891
EC7    EC   0.87751  0.50000  0.16109
EC8    EC   0.87751  0.50000  0.83891
E1    E   0.00000  0.29572  0.33891
E2    E   0.00000  0.29572  0.66109
E3    E   0.00000  0.50000  0.16109
E4    E   0.00000  0.50000  0.83891
E5    E   0.00000  0.70428  0.33891
E6    E   0.00000  0.70428  0.66109
E7    E   0.12249  0.29572  0.50000
E8    E   0.12249  0.39786  0.25000
E9    E   0.12249  0.39786  0.75000
E10   E   0.12249  0.50000  0.00000
E11   E   0.12249  0.60214  0.25000
E12   E   0.12249  0.60214  0.75000
E13   E   0.12249  0.70428  0.50000
E14   E   0.20910  0.20910  0.33891
E15   E   0.20910  0.20910  0.66109
E16   E   0.20910  0.79090  0.33891
E17   E   0.20910  0.79090  0.66109
E18   E   0.29572  0.00000  0.33891
E19   E   0.29572  0.00000  0.66109
E20   E   0.29572  0.12249  0.50000
E21   E   0.29572  0.87751  0.50000
E22   E   0.39786  0.12249  0.25000
E23   E   0.39786  0.12249  0.75000
E24   E   0.39786  0.87751  0.25000
E25   E   0.39786  0.87751  0.75000
E26   E   0.50000  0.00000  0.16109
E27   E   0.50000  0.00000  0.83891
E28   E   0.50000  0.12249  0.00000
E29   E   0.50000  0.87751  0.00000
E30   E   0.60214  0.12249  0.25000
E31   E   0.60214  0.12249  0.75000
E32   E   0.60214  0.87751  0.25000
E33   E   0.60214  0.87751  0.75000
E34   E   0.70428  0.00000  0.33891
E35   E   0.70428  0.00000  0.66109
E36   E   0.70428  0.12249  0.50000
E37   E   0.70428  0.87751  0.50000
E38   E   0.79090  0.20910  0.33891
E39   E   0.79090  0.20910  0.66109
E40   E   0.79090  0.79090  0.33891
E41   E   0.79090  0.79090  0.66109
E42   E   0.87751  0.29572  0.50000
E43   E   0.87751  0.39786  0.25000
E44   E   0.87751  0.39786  0.75000
E45   E   0.87751  0.50000  0.00000
E46   E   0.87751  0.60214  0.25000
E47   E   0.87751  0.60214  0.75000
E48   E   0.87751  0.70428  0.50000
loop_
