data_ftm_Im-3m  hall_number: 529, V_con: 4, EC_con: 4
_audit_creation_date              2025-03-05
_audit_creation_method            'MOFbuilder_1.0'
_symmetry_space_group_name_H-M    'P1'
_symmetry_Int_Tables_number       1
_symmetry_cell_setting            triclinic
loop_
_symmetry_equiv_pos_as_xyz
  x,y,z
_cell_length_a                    10.52392
_cell_length_b                    10.52392
_cell_length_c                    10.52392
_cell_angle_alpha                 90.0
_cell_angle_beta                  90.0
_cell_angle_gamma                 90.0
loop_
_atom_site_label
_atom_site_type_symbol
_atom_site_fract_x
_atom_site_fract_y
_atom_site_fract_z
V1    V   0.04751  0.23204  0.39029
V2    V   0.04751  0.23204  0.60971
V3    V   0.04751  0.39029  0.23204
V4    V   0.04751  0.39029  0.76796
V5    V   0.04751  0.60971  0.23204
V6    V   0.04751  0.60971  0.76796
V7    V   0.04751  0.76796  0.39029
V8    V   0.04751  0.76796  0.60971
V9    V   0.10971  0.26796  0.45249
V10   V   0.10971  0.26796  0.54751
V11   V   0.10971  0.45249  0.26796
V12   V   0.10971  0.45249  0.73204
V13   V   0.10971  0.54751  0.26796
V14   V   0.10971  0.54751  0.73204
V15   V   0.10971  0.73204  0.45249
V16   V   0.10971  0.73204  0.54751
V17   V   0.23204  0.04751  0.39029
V18   V   0.23204  0.04751  0.60971
V19   V   0.23204  0.39029  0.04751
V20   V   0.23204  0.39029  0.95249
V21   V   0.23204  0.60971  0.04751
V22   V   0.23204  0.60971  0.95249
V23   V   0.23204  0.95249  0.39029
V24   V   0.23204  0.95249  0.60971
V25   V   0.26796  0.10971  0.45249
V26   V   0.26796  0.10971  0.54751
V27   V   0.26796  0.45249  0.10971
V28   V   0.26796  0.45249  0.89029
V29   V   0.26796  0.54751  0.10971
V30   V   0.26796  0.54751  0.89029
V31   V   0.26796  0.89029  0.45249
V32   V   0.26796  0.89029  0.54751
V33   V   0.39029  0.04751  0.23204
V34   V   0.39029  0.04751  0.76796
V35   V   0.39029  0.23204  0.04751
V36   V   0.39029  0.23204  0.95249
V37   V   0.39029  0.76796  0.04751
V38   V   0.39029  0.76796  0.95249
V39   V   0.39029  0.95249  0.23204
V40   V   0.39029  0.95249  0.76796
V41   V   0.45249  0.10971  0.26796
V42   V   0.45249  0.10971  0.73204
V43   V   0.45249  0.26796  0.10971
V44   V   0.45249  0.26796  0.89029
V45   V   0.45249  0.73204  0.10971
V46   V   0.45249  0.73204  0.89029
V47   V   0.45249  0.89029  0.26796
V48   V   0.45249  0.89029  0.73204
V49   V   0.54751  0.10971  0.26796
V50   V   0.54751  0.10971  0.73204
V51   V   0.54751  0.26796  0.10971
V52   V   0.54751  0.26796  0.89029
V53   V   0.54751  0.73204  0.10971
V54   V   0.54751  0.73204  0.89029
V55   V   0.54751  0.89029  0.26796
V56   V   0.54751  0.89029  0.73204
V57   V   0.60971  0.04751  0.23204
V58   V   0.60971  0.04751  0.76796
V59   V   0.60971  0.23204  0.04751
V60   V   0.60971  0.23204  0.95249
V61   V   0.60971  0.76796  0.04751
V62   V   0.60971  0.76796  0.95249
V63   V   0.60971  0.95249  0.23204
V64   V   0.60971  0.95249  0.76796
V65   V   0.73204  0.10971  0.45249
V66   V   0.73204  0.10971  0.54751
V67   V   0.73204  0.45249  0.10971
V68   V   0.73204  0.45249  0.89029
V69   V   0.73204  0.54751  0.10971
V70   V   0.73204  0.54751  0.89029
V71   V   0.73204  0.89029  0.45249
V72   V   0.73204  0.89029  0.54751
V73   V   0.76796  0.04751  0.39029
V74   V   0.76796  0.04751  0.60971
V75   V   0.76796  0.39029  0.04751
V76   V   0.76796  0.39029  0.95249
V77   V   0.76796  0.60971  0.04751
V78   V   0.76796  0.60971  0.95249
V79   V   0.76796  0.95249  0.39029
V80   V   0.76796  0.95249  0.60971
V81   V   0.89029  0.26796  0.45249
V82   V   0.89029  0.26796  0.54751
V83   V   0.89029  0.45249  0.26796
V84   V   0.89029  0.45249  0.73204
V85   V   0.89029  0.54751  0.26796
V86   V   0.89029  0.54751  0.73204
V87   V   0.89029  0.73204  0.45249
V88   V   0.89029  0.73204  0.54751
V89   V   0.95249  0.23204  0.39029
V90   V   0.95249  0.23204  0.60971
V91   V   0.95249  0.39029  0.23204
V92   V   0.95249  0.39029  0.76796
V93   V   0.95249  0.60971  0.23204
V94   V   0.95249  0.60971  0.76796
V95   V   0.95249  0.76796  0.39029
V96   V   0.95249  0.76796  0.60971
EC1    EC   0.11342  0.29398  0.36117
EC2    EC   0.11342  0.29398  0.63883
EC3    EC   0.11342  0.36117  0.29398
EC4    EC   0.11342  0.36117  0.70602
EC5    EC   0.11342  0.63883  0.29398
EC6    EC   0.11342  0.63883  0.70602
EC7    EC   0.11342  0.70602  0.36117
EC8    EC   0.11342  0.70602  0.63883
EC9    EC   0.13883  0.20602  0.38658
EC10   EC   0.13883  0.20602  0.61342
EC11   EC   0.13883  0.38658  0.20602
EC12   EC   0.13883  0.38658  0.79398
EC13   EC   0.13883  0.61342  0.20602
EC14   EC   0.13883  0.61342  0.79398
EC15   EC   0.13883  0.79398  0.38658
EC16   EC   0.13883  0.79398  0.61342
EC17   EC   0.20602  0.13883  0.38658
EC18   EC   0.20602  0.13883  0.61342
EC19   EC   0.20602  0.38658  0.13883
EC20   EC   0.20602  0.38658  0.86117
EC21   EC   0.20602  0.61342  0.13883
EC22   EC   0.20602  0.61342  0.86117
EC23   EC   0.20602  0.86117  0.38658
EC24   EC   0.20602  0.86117  0.61342
EC25   EC   0.29398  0.11342  0.36117
EC26   EC   0.29398  0.11342  0.63883
EC27   EC   0.29398  0.36117  0.11342
EC28   EC   0.29398  0.36117  0.88658
EC29   EC   0.29398  0.63883  0.11342
EC30   EC   0.29398  0.63883  0.88658
EC31   EC   0.29398  0.88658  0.36117
EC32   EC   0.29398  0.88658  0.63883
EC33   EC   0.36117  0.11342  0.29398
EC34   EC   0.36117  0.11342  0.70602
EC35   EC   0.36117  0.29398  0.11342
EC36   EC   0.36117  0.29398  0.88658
EC37   EC   0.36117  0.70602  0.11342
EC38   EC   0.36117  0.70602  0.88658
EC39   EC   0.36117  0.88658  0.29398
EC40   EC   0.36117  0.88658  0.70602
EC41   EC   0.38658  0.13883  0.20602
EC42   EC   0.38658  0.13883  0.79398
EC43   EC   0.38658  0.20602  0.13883
EC44   EC   0.38658  0.20602  0.86117
EC45   EC   0.38658  0.79398  0.13883
EC46   EC   0.38658  0.79398  0.86117
EC47   EC   0.38658  0.86117  0.20602
EC48   EC   0.38658  0.86117  0.79398
EC49   EC   0.61342  0.13883  0.20602
EC50   EC   0.61342  0.13883  0.79398
EC51   EC   0.61342  0.20602  0.13883
EC52   EC   0.61342  0.20602  0.86117
EC53   EC   0.61342  0.79398  0.13883
EC54   EC   0.61342  0.79398  0.86117
EC55   EC   0.61342  0.86117  0.20602
EC56   EC   0.61342  0.86117  0.79398
EC57   EC   0.63883  0.11342  0.29398
EC58   EC   0.63883  0.11342  0.70602
EC59   EC   0.63883  0.29398  0.11342
EC60   EC   0.63883  0.29398  0.88658
EC61   EC   0.63883  0.70602  0.11342
EC62   EC   0.63883  0.70602  0.88658
EC63   EC   0.63883  0.88658  0.29398
EC64   EC   0.63883  0.88658  0.70602
EC65   EC   0.70602  0.11342  0.36117
EC66   EC   0.70602  0.11342  0.63883
EC67   EC   0.70602  0.36117  0.11342
EC68   EC   0.70602  0.36117  0.88658
EC69   EC   0.70602  0.63883  0.11342
EC70   EC   0.70602  0.63883  0.88658
EC71   EC   0.70602  0.88658  0.36117
EC72   EC   0.70602  0.88658  0.63883
EC73   EC   0.79398  0.13883  0.38658
EC74   EC   0.79398  0.13883  0.61342
EC75   EC   0.79398  0.38658  0.13883
EC76   EC   0.79398  0.38658  0.86117
EC77   EC   0.79398  0.61342  0.13883
EC78   EC   0.79398  0.61342  0.86117
EC79   EC   0.79398  0.86117  0.38658
EC80   EC   0.79398  0.86117  0.61342
EC81   EC   0.86117  0.20602  0.38658
EC82   EC   0.86117  0.20602  0.61342
EC83   EC   0.86117  0.38658  0.20602
EC84   EC   0.86117  0.38658  0.79398
EC85   EC   0.86117  0.61342  0.20602
EC86   EC   0.86117  0.61342  0.79398
EC87   EC   0.86117  0.79398  0.38658
EC88   EC   0.86117  0.79398  0.61342
EC89   EC   0.88658  0.29398  0.36117
EC90   EC   0.88658  0.29398  0.63883
EC91   EC   0.88658  0.36117  0.29398
EC92   EC   0.88658  0.36117  0.70602
EC93   EC   0.88658  0.63883  0.29398
EC94   EC   0.88658  0.63883  0.70602
EC95   EC   0.88658  0.70602  0.36117
EC96   EC   0.88658  0.70602  0.63883
E1    E   0.00000  0.23204  0.39029
E2    E   0.00000  0.23204  0.60971
E3    E   0.00000  0.39029  0.23204
E4    E   0.00000  0.39029  0.76796
E5    E   0.00000  0.60971  0.23204
E6    E   0.00000  0.60971  0.76796
E7    E   0.00000  0.76796  0.39029
E8    E   0.00000  0.76796  0.60971
E9    E   0.07861  0.25000  0.42139
E10   E   0.07861  0.25000  0.57861
E11   E   0.07861  0.42139  0.25000
E12   E   0.07861  0.42139  0.75000
E13   E   0.07861  0.57861  0.25000
E14   E   0.07861  0.57861  0.75000
E15   E   0.07861  0.75000  0.42139
E16   E   0.07861  0.75000  0.57861
E17   E   0.07861  0.25000  0.42139
E18   E   0.07861  0.25000  0.57861
E19   E   0.07861  0.42139  0.25000
E20   E   0.07861  0.42139  0.75000
E21   E   0.07861  0.57861  0.25000
E22   E   0.07861  0.57861  0.75000
E23   E   0.07861  0.75000  0.42139
E24   E   0.07861  0.75000  0.57861
E25   E   0.08047  0.26301  0.37573
E26   E   0.08047  0.26301  0.62427
E27   E   0.08047  0.37573  0.26301
E28   E   0.08047  0.37573  0.73699
E29   E   0.08047  0.62427  0.26301
E30   E   0.08047  0.62427  0.73699
E31   E   0.08047  0.73699  0.37573
E32   E   0.08047  0.73699  0.62427
E33   E   0.09317  0.21903  0.38843
E34   E   0.09317  0.21903  0.61157
E35   E   0.09317  0.38843  0.21903
E36   E   0.09317  0.38843  0.78097
E37   E   0.09317  0.61157  0.21903
E38   E   0.09317  0.61157  0.78097
E39   E   0.09317  0.78097  0.38843
E40   E   0.09317  0.78097  0.61157
E41   E   0.10971  0.26796  0.50000
E42   E   0.10971  0.50000  0.26796
E43   E   0.10971  0.50000  0.73204
E44   E   0.10971  0.73204  0.50000
E45   E   0.11157  0.28097  0.40683
E46   E   0.11157  0.28097  0.59317
E47   E   0.11157  0.40683  0.28097
E48   E   0.11157  0.40683  0.71903
E49   E   0.11157  0.59317  0.28097
E50   E   0.11157  0.59317  0.71903
E51   E   0.11157  0.71903  0.40683
E52   E   0.11157  0.71903  0.59317
E53   E   0.11342  0.32758  0.32758
E54   E   0.11342  0.32758  0.67242
E55   E   0.11342  0.67242  0.32758
E56   E   0.11342  0.67242  0.67242
E57   E   0.12427  0.23699  0.41953
E58   E   0.12427  0.23699  0.58047
E59   E   0.12427  0.41953  0.23699
E60   E   0.12427  0.41953  0.76301
E61   E   0.12427  0.58047  0.23699
E62   E   0.12427  0.58047  0.76301
E63   E   0.12427  0.76301  0.41953
E64   E   0.12427  0.76301  0.58047
E65   E   0.12612  0.25000  0.37388
E66   E   0.12612  0.25000  0.62612
E67   E   0.12612  0.37388  0.25000
E68   E   0.12612  0.37388  0.75000
E69   E   0.12612  0.62612  0.25000
E70   E   0.12612  0.62612  0.75000
E71   E   0.12612  0.75000  0.37388
E72   E   0.12612  0.75000  0.62612
E73   E   0.17242  0.17242  0.38658
E74   E   0.17242  0.17242  0.61342
E75   E   0.17242  0.38658  0.17242
E76   E   0.17242  0.38658  0.82758
E77   E   0.17242  0.61342  0.17242
E78   E   0.17242  0.61342  0.82758
E79   E   0.17242  0.82758  0.38658
E80   E   0.17242  0.82758  0.61342
E81   E   0.21903  0.09317  0.38843
E82   E   0.21903  0.09317  0.61157
E83   E   0.21903  0.38843  0.09317
E84   E   0.21903  0.38843  0.90683
E85   E   0.21903  0.61157  0.09317
E86   E   0.21903  0.61157  0.90683
E87   E   0.21903  0.90683  0.38843
E88   E   0.21903  0.90683  0.61157
E89   E   0.23204  0.00000  0.39029
E90   E   0.23204  0.00000  0.60971
E91   E   0.23204  0.39029  0.00000
E92   E   0.23204  0.60971  0.00000
E93   E   0.23699  0.12427  0.41953
E94   E   0.23699  0.12427  0.58047
E95   E   0.23699  0.41953  0.12427
E96   E   0.23699  0.41953  0.87573
E97   E   0.23699  0.58047  0.12427
E98   E   0.23699  0.58047  0.87573
E99   E   0.23699  0.87573  0.41953
E100  E   0.23699  0.87573  0.58047
E101  E   0.25000  0.07861  0.42139
E102  E   0.25000  0.07861  0.57861
E103  E   0.25000  0.07861  0.42139
E104  E   0.25000  0.07861  0.57861
E105  E   0.25000  0.12612  0.37388
E106  E   0.25000  0.12612  0.62612
E107  E   0.25000  0.37388  0.12612
E108  E   0.25000  0.37388  0.87388
E109  E   0.25000  0.42139  0.07861
E110  E   0.25000  0.42139  0.07861
E111  E   0.25000  0.42139  0.92139
E112  E   0.25000  0.42139  0.92139
E113  E   0.25000  0.57861  0.07861
E114  E   0.25000  0.57861  0.92139
E115  E   0.25000  0.57861  0.07861
E116  E   0.25000  0.57861  0.92139
E117  E   0.25000  0.62612  0.12612
E118  E   0.25000  0.62612  0.87388
E119  E   0.25000  0.87388  0.37388
E120  E   0.25000  0.87388  0.62612
E121  E   0.25000  0.92139  0.42139
E122  E   0.25000  0.92139  0.57861
E123  E   0.25000  0.92139  0.42139
E124  E   0.25000  0.92139  0.57861
E125  E   0.26301  0.08047  0.37573
E126  E   0.26301  0.08047  0.62427
E127  E   0.26301  0.37573  0.08047
E128  E   0.26301  0.37573  0.91953
E129  E   0.26301  0.62427  0.08047
E130  E   0.26301  0.62427  0.91953
E131  E   0.26301  0.91953  0.37573
E132  E   0.26301  0.91953  0.62427
E133  E   0.26796  0.10971  0.50000
E134  E   0.26796  0.50000  0.10971
E135  E   0.26796  0.50000  0.89029
E136  E   0.26796  0.89029  0.50000
E137  E   0.28097  0.11157  0.40683
E138  E   0.28097  0.11157  0.59317
E139  E   0.28097  0.40683  0.11157
E140  E   0.28097  0.40683  0.88843
E141  E   0.28097  0.59317  0.11157
E142  E   0.28097  0.59317  0.88843
E143  E   0.28097  0.88843  0.40683
E144  E   0.28097  0.88843  0.59317
E145  E   0.32758  0.11342  0.32758
E146  E   0.32758  0.11342  0.67242
E147  E   0.32758  0.32758  0.11342
E148  E   0.32758  0.32758  0.88658
E149  E   0.32758  0.67242  0.11342
E150  E   0.32758  0.67242  0.88658
E151  E   0.32758  0.88658  0.32758
E152  E   0.32758  0.88658  0.67242
E153  E   0.37388  0.12612  0.25000
E154  E   0.37388  0.12612  0.75000
E155  E   0.37388  0.25000  0.12612
E156  E   0.37388  0.25000  0.87388
E157  E   0.37388  0.75000  0.12612
E158  E   0.37388  0.75000  0.87388
E159  E   0.37388  0.87388  0.25000
E160  E   0.37388  0.87388  0.75000
E161  E   0.37573  0.08047  0.26301
E162  E   0.37573  0.08047  0.73699
E163  E   0.37573  0.26301  0.08047
E164  E   0.37573  0.26301  0.91953
E165  E   0.37573  0.73699  0.08047
E166  E   0.37573  0.73699  0.91953
E167  E   0.37573  0.91953  0.26301
E168  E   0.37573  0.91953  0.73699
E169  E   0.38658  0.17242  0.17242
E170  E   0.38658  0.17242  0.82758
E171  E   0.38658  0.82758  0.17242
E172  E   0.38658  0.82758  0.82758
E173  E   0.38843  0.09317  0.21903
E174  E   0.38843  0.09317  0.78097
E175  E   0.38843  0.21903  0.09317
E176  E   0.38843  0.21903  0.90683
E177  E   0.38843  0.78097  0.09317
E178  E   0.38843  0.78097  0.90683
E179  E   0.38843  0.90683  0.21903
E180  E   0.38843  0.90683  0.78097
E181  E   0.39029  0.00000  0.23204
E182  E   0.39029  0.00000  0.76796
E183  E   0.39029  0.23204  0.00000
E184  E   0.39029  0.76796  0.00000
E185  E   0.40683  0.11157  0.28097
E186  E   0.40683  0.11157  0.71903
E187  E   0.40683  0.28097  0.11157
E188  E   0.40683  0.28097  0.88843
E189  E   0.40683  0.71903  0.11157
E190  E   0.40683  0.71903  0.88843
E191  E   0.40683  0.88843  0.28097
E192  E   0.40683  0.88843  0.71903
E193  E   0.41953  0.12427  0.23699
E194  E   0.41953  0.12427  0.76301
E195  E   0.41953  0.23699  0.12427
E196  E   0.41953  0.23699  0.87573
E197  E   0.41953  0.76301  0.12427
E198  E   0.41953  0.76301  0.87573
E199  E   0.41953  0.87573  0.23699
E200  E   0.41953  0.87573  0.76301
E201  E   0.42139  0.07861  0.25000
E202  E   0.42139  0.07861  0.75000
E203  E   0.42139  0.07861  0.25000
E204  E   0.42139  0.07861  0.75000
E205  E   0.42139  0.25000  0.07861
E206  E   0.42139  0.25000  0.07861
E207  E   0.42139  0.25000  0.92139
E208  E   0.42139  0.25000  0.92139
E209  E   0.42139  0.75000  0.07861
E210  E   0.42139  0.75000  0.07861
E211  E   0.42139  0.75000  0.92139
E212  E   0.42139  0.75000  0.92139
E213  E   0.42139  0.92139  0.25000
E214  E   0.42139  0.92139  0.75000
E215  E   0.42139  0.92139  0.25000
E216  E   0.42139  0.92139  0.75000
E217  E   0.50000  0.10971  0.26796
E218  E   0.50000  0.10971  0.73204
E219  E   0.50000  0.26796  0.10971
E220  E   0.50000  0.26796  0.89029
E221  E   0.50000  0.73204  0.10971
E222  E   0.50000  0.73204  0.89029
E223  E   0.50000  0.89029  0.26796
E224  E   0.50000  0.89029  0.73204
E225  E   0.57861  0.07861  0.25000
E226  E   0.57861  0.07861  0.75000
E227  E   0.57861  0.25000  0.07861
E228  E   0.57861  0.25000  0.92139
E229  E   0.57861  0.75000  0.07861
E230  E   0.57861  0.75000  0.92139
E231  E   0.57861  0.92139  0.25000
E232  E   0.57861  0.92139  0.75000
E233  E   0.57861  0.07861  0.25000
E234  E   0.57861  0.07861  0.75000
E235  E   0.57861  0.25000  0.07861
E236  E   0.57861  0.25000  0.92139
E237  E   0.57861  0.75000  0.07861
E238  E   0.57861  0.75000  0.92139
E239  E   0.57861  0.92139  0.25000
E240  E   0.57861  0.92139  0.75000
E241  E   0.58047  0.12427  0.23699
E242  E   0.58047  0.12427  0.76301
E243  E   0.58047  0.23699  0.12427
E244  E   0.58047  0.23699  0.87573
E245  E   0.58047  0.76301  0.12427
E246  E   0.58047  0.76301  0.87573
E247  E   0.58047  0.87573  0.23699
E248  E   0.58047  0.87573  0.76301
E249  E   0.59317  0.11157  0.28097
E250  E   0.59317  0.11157  0.71903
E251  E   0.59317  0.28097  0.11157
E252  E   0.59317  0.28097  0.88843
E253  E   0.59317  0.71903  0.11157
E254  E   0.59317  0.71903  0.88843
E255  E   0.59317  0.88843  0.28097
E256  E   0.59317  0.88843  0.71903
E257  E   0.60971  0.00000  0.23204
E258  E   0.60971  0.00000  0.76796
E259  E   0.60971  0.23204  0.00000
E260  E   0.60971  0.76796  0.00000
E261  E   0.61157  0.09317  0.21903
E262  E   0.61157  0.09317  0.78097
E263  E   0.61157  0.21903  0.09317
E264  E   0.61157  0.21903  0.90683
E265  E   0.61157  0.78097  0.09317
E266  E   0.61157  0.78097  0.90683
E267  E   0.61157  0.90683  0.21903
E268  E   0.61157  0.90683  0.78097
E269  E   0.61342  0.17242  0.17242
E270  E   0.61342  0.17242  0.82758
E271  E   0.61342  0.82758  0.17242
E272  E   0.61342  0.82758  0.82758
E273  E   0.62427  0.08047  0.26301
E274  E   0.62427  0.08047  0.73699
E275  E   0.62427  0.26301  0.08047
E276  E   0.62427  0.26301  0.91953
E277  E   0.62427  0.73699  0.08047
E278  E   0.62427  0.73699  0.91953
E279  E   0.62427  0.91953  0.26301
E280  E   0.62427  0.91953  0.73699
E281  E   0.62612  0.12612  0.25000
E282  E   0.62612  0.12612  0.75000
E283  E   0.62612  0.25000  0.12612
E284  E   0.62612  0.25000  0.87388
E285  E   0.62612  0.75000  0.12612
E286  E   0.62612  0.75000  0.87388
E287  E   0.62612  0.87388  0.25000
E288  E   0.62612  0.87388  0.75000
E289  E   0.67242  0.11342  0.32758
E290  E   0.67242  0.11342  0.67242
E291  E   0.67242  0.32758  0.11342
E292  E   0.67242  0.32758  0.88658
E293  E   0.67242  0.67242  0.11342
E294  E   0.67242  0.67242  0.88658
E295  E   0.67242  0.88658  0.32758
E296  E   0.67242  0.88658  0.67242
E297  E   0.71903  0.11157  0.40683
E298  E   0.71903  0.11157  0.59317
E299  E   0.71903  0.40683  0.11157
E300  E   0.71903  0.40683  0.88843
E301  E   0.71903  0.59317  0.11157
E302  E   0.71903  0.59317  0.88843
E303  E   0.71903  0.88843  0.40683
E304  E   0.71903  0.88843  0.59317
E305  E   0.73204  0.10971  0.50000
E306  E   0.73204  0.50000  0.10971
E307  E   0.73204  0.50000  0.89029
E308  E   0.73204  0.89029  0.50000
E309  E   0.73699  0.08047  0.37573
E310  E   0.73699  0.08047  0.62427
E311  E   0.73699  0.37573  0.08047
E312  E   0.73699  0.37573  0.91953
E313  E   0.73699  0.62427  0.08047
E314  E   0.73699  0.62427  0.91953
E315  E   0.73699  0.91953  0.37573
E316  E   0.73699  0.91953  0.62427
E317  E   0.75000  0.07861  0.42139
E318  E   0.75000  0.07861  0.57861
E319  E   0.75000  0.07861  0.42139
E320  E   0.75000  0.07861  0.57861
E321  E   0.75000  0.12612  0.37388
E322  E   0.75000  0.12612  0.62612
E323  E   0.75000  0.37388  0.12612
E324  E   0.75000  0.37388  0.87388
E325  E   0.75000  0.42139  0.07861
E326  E   0.75000  0.42139  0.07861
E327  E   0.75000  0.42139  0.92139
E328  E   0.75000  0.42139  0.92139
E329  E   0.75000  0.57861  0.07861
E330  E   0.75000  0.57861  0.92139
E331  E   0.75000  0.57861  0.07861
E332  E   0.75000  0.57861  0.92139
E333  E   0.75000  0.62612  0.12612
E334  E   0.75000  0.62612  0.87388
E335  E   0.75000  0.87388  0.37388
E336  E   0.75000  0.87388  0.62612
E337  E   0.75000  0.92139  0.42139
E338  E   0.75000  0.92139  0.57861
E339  E   0.75000  0.92139  0.42139
E340  E   0.75000  0.92139  0.57861
E341  E   0.76301  0.12427  0.41953
E342  E   0.76301  0.12427  0.58047
E343  E   0.76301  0.41953  0.12427
E344  E   0.76301  0.41953  0.87573
E345  E   0.76301  0.58047  0.12427
E346  E   0.76301  0.58047  0.87573
E347  E   0.76301  0.87573  0.41953
E348  E   0.76301  0.87573  0.58047
E349  E   0.76796  0.00000  0.39029
E350  E   0.76796  0.00000  0.60971
E351  E   0.76796  0.39029  0.00000
E352  E   0.76796  0.60971  0.00000
E353  E   0.78097  0.09317  0.38843
E354  E   0.78097  0.09317  0.61157
E355  E   0.78097  0.38843  0.09317
E356  E   0.78097  0.38843  0.90683
E357  E   0.78097  0.61157  0.09317
E358  E   0.78097  0.61157  0.90683
E359  E   0.78097  0.90683  0.38843
E360  E   0.78097  0.90683  0.61157
E361  E   0.82758  0.17242  0.38658
E362  E   0.82758  0.17242  0.61342
E363  E   0.82758  0.38658  0.17242
E364  E   0.82758  0.38658  0.82758
E365  E   0.82758  0.61342  0.17242
E366  E   0.82758  0.61342  0.82758
E367  E   0.82758  0.82758  0.38658
E368  E   0.82758  0.82758  0.61342
E369  E   0.87388  0.25000  0.37388
E370  E   0.87388  0.25000  0.62612
E371  E   0.87388  0.37388  0.25000
E372  E   0.87388  0.37388  0.75000
E373  E   0.87388  0.62612  0.25000
E374  E   0.87388  0.62612  0.75000
E375  E   0.87388  0.75000  0.37388
E376  E   0.87388  0.75000  0.62612
E377  E   0.87573  0.23699  0.41953
E378  E   0.87573  0.23699  0.58047
E379  E   0.87573  0.41953  0.23699
E380  E   0.87573  0.41953  0.76301
E381  E   0.87573  0.58047  0.23699
E382  E   0.87573  0.58047  0.76301
E383  E   0.87573  0.76301  0.41953
E384  E   0.87573  0.76301  0.58047
E385  E   0.88658  0.32758  0.32758
E386  E   0.88658  0.32758  0.67242
E387  E   0.88658  0.67242  0.32758
E388  E   0.88658  0.67242  0.67242
E389  E   0.88843  0.28097  0.40683
E390  E   0.88843  0.28097  0.59317
E391  E   0.88843  0.40683  0.28097
E392  E   0.88843  0.40683  0.71903
E393  E   0.88843  0.59317  0.28097
E394  E   0.88843  0.59317  0.71903
E395  E   0.88843  0.71903  0.40683
E396  E   0.88843  0.71903  0.59317
E397  E   0.89029  0.26796  0.50000
E398  E   0.89029  0.50000  0.26796
E399  E   0.89029  0.50000  0.73204
E400  E   0.89029  0.73204  0.50000
E401  E   0.90683  0.21903  0.38843
E402  E   0.90683  0.21903  0.61157
E403  E   0.90683  0.38843  0.21903
E404  E   0.90683  0.38843  0.78097
E405  E   0.90683  0.61157  0.21903
E406  E   0.90683  0.61157  0.78097
E407  E   0.90683  0.78097  0.38843
E408  E   0.90683  0.78097  0.61157
E409  E   0.91953  0.26301  0.37573
E410  E   0.91953  0.26301  0.62427
E411  E   0.91953  0.37573  0.26301
E412  E   0.91953  0.37573  0.73699
E413  E   0.91953  0.62427  0.26301
E414  E   0.91953  0.62427  0.73699
E415  E   0.91953  0.73699  0.37573
E416  E   0.91953  0.73699  0.62427
E417  E   0.92139  0.25000  0.42139
E418  E   0.92139  0.25000  0.57861
E419  E   0.92139  0.42139  0.25000
E420  E   0.92139  0.42139  0.75000
E421  E   0.92139  0.57861  0.25000
E422  E   0.92139  0.57861  0.75000
E423  E   0.92139  0.75000  0.42139
E424  E   0.92139  0.75000  0.57861
E425  E   0.92139  0.25000  0.42139
E426  E   0.92139  0.25000  0.57861
E427  E   0.92139  0.42139  0.25000
E428  E   0.92139  0.42139  0.75000
E429  E   0.92139  0.57861  0.25000
E430  E   0.92139  0.57861  0.75000
E431  E   0.92139  0.75000  0.42139
E432  E   0.92139  0.75000  0.57861
loop_
