data_fto_Pm-3n  hall_number: 520, V_con: 4, EC_con: 4
_audit_creation_date              2025-03-05
_audit_creation_method            'MOFbuilder_1.0'
_symmetry_space_group_name_H-M    'P1'
_symmetry_Int_Tables_number       1
_symmetry_cell_setting            triclinic
loop_
_symmetry_equiv_pos_as_xyz
  x,y,z
_cell_length_a                    45.203300000000006
_cell_length_b                    45.203300000000006
_cell_length_c                    45.203300000000006
_cell_angle_alpha                 90.0
_cell_angle_beta                  90.0
_cell_angle_gamma                 90.0
loop_
_atom_site_label
_atom_site_type_symbol
_atom_site_fract_x
_atom_site_fract_y
_atom_site_fract_z
V1    V   0.00000  0.32821  0.38939
V2    V   0.00000  0.32821  0.61061
V3    V   0.00000  0.67179  0.38939
V4    V   0.00000  0.67179  0.61061
V5    V   0.11061  0.17179  0.50000
V6    V   0.11061  0.82821  0.50000
V7    V   0.17179  0.50000  0.11061
V8    V   0.17179  0.50000  0.88939
V9    V   0.32821  0.38939  0.00000
V10   V   0.32821  0.61061  0.00000
V11   V   0.38939  0.00000  0.32821
V12   V   0.38939  0.00000  0.67179
V13   V   0.50000  0.11061  0.17179
V14   V   0.50000  0.11061  0.82821
V15   V   0.50000  0.88939  0.17179
V16   V   0.50000  0.88939  0.82821
V17   V   0.61061  0.00000  0.32821
V18   V   0.61061  0.00000  0.67179
V19   V   0.67179  0.38939  0.00000
V20   V   0.67179  0.61061  0.00000
V21   V   0.82821  0.50000  0.11061
V22   V   0.82821  0.50000  0.88939
V23   V   0.88939  0.17179  0.50000
V24   V   0.88939  0.82821  0.50000
EC1    EC   0.00000  0.50000  0.25000
EC2    EC   0.00000  0.50000  0.75000
EC3    EC   0.25000  0.00000  0.50000
EC4    EC   0.50000  0.25000  0.00000
EC5    EC   0.50000  0.75000  0.00000
EC6    EC   0.75000  0.00000  0.50000
E1    E   0.00000  0.17179  0.50000
E2    E   0.00000  0.32821  0.50000
E3    E   0.00000  0.41411  0.31969
E4    E   0.00000  0.41411  0.68031
E5    E   0.00000  0.58589  0.31969
E6    E   0.00000  0.58589  0.68031
E7    E   0.00000  0.67179  0.50000
E8    E   0.00000  0.82821  0.50000
E9    E   0.05531  0.25000  0.44469
E10   E   0.05531  0.25000  0.55531
E11   E   0.05531  0.75000  0.44469
E12   E   0.05531  0.75000  0.55531
E13   E   0.05531  0.25000  0.44469
E14   E   0.05531  0.25000  0.55531
E15   E   0.05531  0.75000  0.44469
E16   E   0.05531  0.75000  0.55531
E17   E   0.08589  0.50000  0.18031
E18   E   0.08589  0.50000  0.81969
E19   E   0.17179  0.50000  0.00000
E20   E   0.18031  0.08589  0.50000
E21   E   0.18031  0.91411  0.50000
E22   E   0.25000  0.44469  0.05531
E23   E   0.25000  0.44469  0.94469
E24   E   0.25000  0.44469  0.05531
E25   E   0.25000  0.44469  0.94469
E26   E   0.25000  0.55531  0.05531
E27   E   0.25000  0.55531  0.05531
E28   E   0.25000  0.55531  0.94469
E29   E   0.31969  0.00000  0.41411
E30   E   0.31969  0.00000  0.58589
E31   E   0.32821  0.50000  0.00000
E32   E   0.41411  0.31969  0.00000
E33   E   0.41411  0.68031  0.00000
E34   E   0.44469  0.05531  0.25000
E35   E   0.44469  0.05531  0.75000
E36   E   0.44469  0.94469  0.25000
E37   E   0.44469  0.94469  0.75000
E38   E   0.44469  0.05531  0.25000
E39   E   0.44469  0.05531  0.75000
E40   E   0.44469  0.94469  0.25000
E41   E   0.44469  0.94469  0.75000
E42   E   0.50000  0.00000  0.17179
E43   E   0.50000  0.00000  0.32821
E44   E   0.50000  0.00000  0.67179
E45   E   0.50000  0.00000  0.82821
E46   E   0.50000  0.18031  0.08589
E47   E   0.50000  0.18031  0.91411
E48   E   0.50000  0.81969  0.08589
E49   E   0.50000  0.81969  0.91411
E50   E   0.55531  0.05531  0.25000
E51   E   0.55531  0.05531  0.75000
E52   E   0.55531  0.05531  0.25000
E53   E   0.55531  0.05531  0.75000
E54   E   0.55531  0.94469  0.25000
E55   E   0.55531  0.94469  0.75000
E56   E   0.58589  0.31969  0.00000
E57   E   0.58589  0.68031  0.00000
E58   E   0.67179  0.50000  0.00000
E59   E   0.68031  0.00000  0.41411
E60   E   0.68031  0.00000  0.58589
E61   E   0.75000  0.44469  0.05531
E62   E   0.75000  0.44469  0.94469
E63   E   0.75000  0.44469  0.05531
E64   E   0.75000  0.44469  0.94469
E65   E   0.75000  0.55531  0.05531
E66   E   0.75000  0.55531  0.05531
E67   E   0.75000  0.55531  0.94469
E68   E   0.81969  0.08589  0.50000
E69   E   0.81969  0.91411  0.50000
E70   E   0.82821  0.50000  0.00000
E71   E   0.91411  0.50000  0.18031
E72   E   0.91411  0.50000  0.81969
E73   E   0.94469  0.25000  0.44469
E74   E   0.94469  0.25000  0.44469
E75   E   0.94469  0.25000  0.55531
E76   E   0.94469  0.75000  0.44469
E77   E   0.94469  0.75000  0.44469
E78   E   0.94469  0.75000  0.55531
loop_
