data_ftp_P42/mnm  hall_number: 419, V_con: 4, EC_con: 4
_audit_creation_date              2025-03-05
_audit_creation_method            'MOFbuilder_1.0'
_symmetry_space_group_name_H-M    'P1'
_symmetry_Int_Tables_number       1
_symmetry_cell_setting            triclinic
loop_
_symmetry_equiv_pos_as_xyz
  x,y,z
_cell_length_a                    33.3733
_cell_length_b                    33.3733
_cell_length_c                    54.430899999999994
_cell_angle_alpha                 90.0
_cell_angle_beta                  90.0
_cell_angle_gamma                 90.0
loop_
_atom_site_label
_atom_site_type_symbol
_atom_site_fract_x
_atom_site_fract_y
_atom_site_fract_z
V1    V   0.10594  0.89406  0.09186
V2    V   0.10594  0.89406  0.90814
V3    V   0.39406  0.39406  0.40814
V4    V   0.39406  0.39406  0.59186
V5    V   0.60594  0.60594  0.40814
V6    V   0.60594  0.60594  0.59186
V7    V   0.89406  0.10594  0.09186
V8    V   0.89406  0.10594  0.90814
EC1    EC   0.03947  0.64453  0.18505
EC2    EC   0.03947  0.64453  0.81495
EC3    EC   0.14453  0.46053  0.31495
EC4    EC   0.14453  0.46053  0.68505
EC5    EC   0.35547  0.96053  0.18505
EC6    EC   0.35547  0.96053  0.81495
EC7    EC   0.46053  0.14453  0.31495
EC8    EC   0.46053  0.14453  0.68505
EC9    EC   0.53947  0.85547  0.31495
EC10   EC   0.53947  0.85547  0.68505
EC11   EC   0.64453  0.03947  0.18505
EC12   EC   0.64453  0.03947  0.81495
EC13   EC   0.85547  0.53947  0.31495
EC14   EC   0.85547  0.53947  0.68505
EC15   EC   0.96053  0.35547  0.18505
EC16   EC   0.96053  0.35547  0.81495
E1    E   0.00000  0.00000  0.09186
E2    E   0.00000  0.00000  0.90814
E3    E   0.00000  0.50000  0.18505
E4    E   0.00000  0.50000  0.31495
E5    E   0.00000  0.50000  0.68505
E6    E   0.00000  0.50000  0.81495
E7    E   0.05253  0.40800  0.25000
E8    E   0.05253  0.40800  0.75000
E9    E   0.07270  0.76930  0.13845
E10   E   0.07270  0.76930  0.86155
E11   E   0.09200  0.55253  0.25000
E12   E   0.09200  0.55253  0.75000
E13   E   0.10594  0.89406  0.00000
E14   E   0.23070  0.92730  0.13845
E15   E   0.23070  0.92730  0.86155
E16   E   0.26930  0.42730  0.36155
E17   E   0.26930  0.42730  0.63845
E18   E   0.39406  0.39406  0.50000
E19   E   0.40800  0.05253  0.25000
E20   E   0.40800  0.05253  0.75000
E21   E   0.42730  0.26930  0.36155
E22   E   0.42730  0.26930  0.63845
E23   E   0.44747  0.90800  0.25000
E24   E   0.44747  0.90800  0.75000
E25   E   0.50000  0.00000  0.18505
E26   E   0.50000  0.00000  0.31495
E27   E   0.50000  0.00000  0.68505
E28   E   0.50000  0.00000  0.81495
E29   E   0.50000  0.50000  0.40814
E30   E   0.50000  0.50000  0.59186
E31   E   0.55253  0.09200  0.25000
E32   E   0.55253  0.09200  0.75000
E33   E   0.57270  0.73070  0.36155
E34   E   0.57270  0.73070  0.63845
E35   E   0.59200  0.94747  0.25000
E36   E   0.59200  0.94747  0.75000
E37   E   0.60594  0.60594  0.50000
E38   E   0.73070  0.57270  0.36155
E39   E   0.73070  0.57270  0.63845
E40   E   0.76930  0.07270  0.13845
E41   E   0.76930  0.07270  0.86155
E42   E   0.89406  0.10594  0.00000
E43   E   0.90800  0.44747  0.25000
E44   E   0.90800  0.44747  0.75000
E45   E   0.92730  0.23070  0.13845
E46   E   0.92730  0.23070  0.86155
E47   E   0.94747  0.59200  0.25000
E48   E   0.94747  0.59200  0.75000
loop_
