data_fty_Pm-3m  hall_number: 517, V_con: 4, EC_con: 4
_audit_creation_date              2025-03-05
_audit_creation_method            'MOFbuilder_1.0'
_symmetry_space_group_name_H-M    'P1'
_symmetry_Int_Tables_number       1
_symmetry_cell_setting            triclinic
loop_
_symmetry_equiv_pos_as_xyz
  x,y,z
_cell_length_a                    68.2843
_cell_length_b                    68.2843
_cell_length_c                    68.2843
_cell_angle_alpha                 90.0
_cell_angle_beta                  90.0
_cell_angle_gamma                 90.0
loop_
_atom_site_label
_atom_site_type_symbol
_atom_site_fract_x
_atom_site_fract_y
_atom_site_fract_z
V1    V   0.07322  0.17678  0.42678
V2    V   0.07322  0.17678  0.57322
V3    V   0.07322  0.42678  0.17678
V4    V   0.07322  0.42678  0.82322
V5    V   0.07322  0.57322  0.17678
V6    V   0.07322  0.57322  0.82322
V7    V   0.07322  0.82322  0.42678
V8    V   0.07322  0.82322  0.57322
V9    V   0.17678  0.07322  0.42678
V10   V   0.17678  0.07322  0.57322
V11   V   0.17678  0.42678  0.07322
V12   V   0.17678  0.42678  0.92678
V13   V   0.17678  0.57322  0.07322
V14   V   0.17678  0.57322  0.92678
V15   V   0.17678  0.92678  0.42678
V16   V   0.17678  0.92678  0.57322
V17   V   0.42678  0.07322  0.17678
V18   V   0.42678  0.07322  0.82322
V19   V   0.42678  0.17678  0.07322
V20   V   0.42678  0.17678  0.92678
V21   V   0.42678  0.82322  0.07322
V22   V   0.42678  0.82322  0.92678
V23   V   0.42678  0.92678  0.17678
V24   V   0.42678  0.92678  0.82322
V25   V   0.57322  0.07322  0.17678
V26   V   0.57322  0.07322  0.82322
V27   V   0.57322  0.17678  0.07322
V28   V   0.57322  0.17678  0.92678
V29   V   0.57322  0.82322  0.07322
V30   V   0.57322  0.82322  0.92678
V31   V   0.57322  0.92678  0.17678
V32   V   0.57322  0.92678  0.82322
V33   V   0.82322  0.07322  0.42678
V34   V   0.82322  0.07322  0.57322
V35   V   0.82322  0.42678  0.07322
V36   V   0.82322  0.42678  0.92678
V37   V   0.82322  0.57322  0.07322
V38   V   0.82322  0.57322  0.92678
V39   V   0.82322  0.92678  0.42678
V40   V   0.82322  0.92678  0.57322
V41   V   0.92678  0.17678  0.42678
V42   V   0.92678  0.17678  0.57322
V43   V   0.92678  0.42678  0.17678
V44   V   0.92678  0.42678  0.82322
V45   V   0.92678  0.57322  0.17678
V46   V   0.92678  0.57322  0.82322
V47   V   0.92678  0.82322  0.42678
V48   V   0.92678  0.82322  0.57322
EC1    EC   0.07322  0.17678  0.28033
EC2    EC   0.07322  0.17678  0.71967
EC3    EC   0.07322  0.28033  0.17678
EC4    EC   0.07322  0.28033  0.82322
EC5    EC   0.07322  0.71967  0.17678
EC6    EC   0.07322  0.71967  0.82322
EC7    EC   0.07322  0.82322  0.28033
EC8    EC   0.07322  0.82322  0.71967
EC9    EC   0.17678  0.07322  0.28033
EC10   EC   0.17678  0.07322  0.71967
EC11   EC   0.17678  0.28033  0.07322
EC12   EC   0.17678  0.28033  0.92678
EC13   EC   0.17678  0.71967  0.07322
EC14   EC   0.17678  0.71967  0.92678
EC15   EC   0.17678  0.92678  0.28033
EC16   EC   0.17678  0.92678  0.71967
EC17   EC   0.28033  0.07322  0.17678
EC18   EC   0.28033  0.07322  0.82322
EC19   EC   0.28033  0.17678  0.07322
EC20   EC   0.28033  0.17678  0.92678
EC21   EC   0.28033  0.82322  0.07322
EC22   EC   0.28033  0.82322  0.92678
EC23   EC   0.28033  0.92678  0.17678
EC24   EC   0.28033  0.92678  0.82322
EC25   EC   0.71967  0.07322  0.17678
EC26   EC   0.71967  0.07322  0.82322
EC27   EC   0.71967  0.17678  0.07322
EC28   EC   0.71967  0.17678  0.92678
EC29   EC   0.71967  0.82322  0.07322
EC30   EC   0.71967  0.82322  0.92678
EC31   EC   0.71967  0.92678  0.17678
EC32   EC   0.71967  0.92678  0.82322
EC33   EC   0.82322  0.07322  0.28033
EC34   EC   0.82322  0.07322  0.71967
EC35   EC   0.82322  0.28033  0.07322
EC36   EC   0.82322  0.28033  0.92678
EC37   EC   0.82322  0.71967  0.07322
EC38   EC   0.82322  0.71967  0.92678
EC39   EC   0.82322  0.92678  0.28033
EC40   EC   0.82322  0.92678  0.71967
EC41   EC   0.92678  0.17678  0.28033
EC42   EC   0.92678  0.17678  0.71967
EC43   EC   0.92678  0.28033  0.17678
EC44   EC   0.92678  0.28033  0.82322
EC45   EC   0.92678  0.71967  0.17678
EC46   EC   0.92678  0.71967  0.82322
EC47   EC   0.92678  0.82322  0.28033
EC48   EC   0.92678  0.82322  0.71967
E1    E   0.00000  0.17678  0.28033
E2    E   0.00000  0.17678  0.42678
E3    E   0.00000  0.17678  0.57322
E4    E   0.00000  0.17678  0.71967
E5    E   0.00000  0.28033  0.17678
E6    E   0.00000  0.28033  0.82322
E7    E   0.00000  0.42678  0.17678
E8    E   0.00000  0.42678  0.82322
E9    E   0.00000  0.57322  0.17678
E10   E   0.00000  0.57322  0.82322
E11   E   0.00000  0.71967  0.17678
E12   E   0.00000  0.71967  0.82322
E13   E   0.00000  0.82322  0.28033
E14   E   0.00000  0.82322  0.42678
E15   E   0.00000  0.82322  0.57322
E16   E   0.00000  0.82322  0.71967
E17   E   0.07322  0.17678  0.35355
E18   E   0.07322  0.17678  0.50000
E19   E   0.07322  0.17678  0.64645
E20   E   0.07322  0.22855  0.22855
E21   E   0.07322  0.22855  0.77145
E22   E   0.07322  0.35355  0.17678
E23   E   0.07322  0.35355  0.82322
E24   E   0.07322  0.50000  0.17678
E25   E   0.07322  0.50000  0.82322
E26   E   0.07322  0.64645  0.17678
E27   E   0.07322  0.64645  0.82322
E28   E   0.07322  0.77145  0.22855
E29   E   0.07322  0.77145  0.77145
E30   E   0.07322  0.82322  0.35355
E31   E   0.07322  0.82322  0.50000
E32   E   0.07322  0.82322  0.64645
E33   E   0.12500  0.12500  0.28033
E34   E   0.12500  0.12500  0.42678
E35   E   0.12500  0.12500  0.57322
E36   E   0.12500  0.12500  0.71967
E37   E   0.12500  0.28033  0.12500
E38   E   0.12500  0.28033  0.87500
E39   E   0.12500  0.42678  0.12500
E40   E   0.12500  0.42678  0.87500
E41   E   0.12500  0.57322  0.12500
E42   E   0.12500  0.57322  0.87500
E43   E   0.12500  0.71967  0.12500
E44   E   0.12500  0.71967  0.87500
E45   E   0.12500  0.87500  0.28033
E46   E   0.12500  0.87500  0.42678
E47   E   0.12500  0.87500  0.57322
E48   E   0.12500  0.87500  0.71967
E49   E   0.17678  0.00000  0.28033
E50   E   0.17678  0.00000  0.42678
E51   E   0.17678  0.00000  0.57322
E52   E   0.17678  0.00000  0.71967
E53   E   0.17678  0.07322  0.35355
E54   E   0.17678  0.07322  0.50000
E55   E   0.17678  0.07322  0.64645
E56   E   0.17678  0.28033  0.00000
E57   E   0.17678  0.35355  0.07322
E58   E   0.17678  0.35355  0.92678
E59   E   0.17678  0.42678  0.00000
E60   E   0.17678  0.50000  0.07322
E61   E   0.17678  0.50000  0.92678
E62   E   0.17678  0.57322  0.00000
E63   E   0.17678  0.64645  0.07322
E64   E   0.17678  0.64645  0.92678
E65   E   0.17678  0.71967  0.00000
E66   E   0.17678  0.92678  0.35355
E67   E   0.17678  0.92678  0.50000
E68   E   0.17678  0.92678  0.64645
E69   E   0.22855  0.07322  0.22855
E70   E   0.22855  0.07322  0.77145
E71   E   0.22855  0.22855  0.07322
E72   E   0.22855  0.22855  0.92678
E73   E   0.22855  0.77145  0.07322
E74   E   0.22855  0.77145  0.92678
E75   E   0.22855  0.92678  0.22855
E76   E   0.22855  0.92678  0.77145
E77   E   0.28033  0.00000  0.17678
E78   E   0.28033  0.00000  0.82322
E79   E   0.28033  0.12500  0.12500
E80   E   0.28033  0.12500  0.87500
E81   E   0.28033  0.17678  0.00000
E82   E   0.28033  0.82322  0.00000
E83   E   0.28033  0.87500  0.12500
E84   E   0.28033  0.87500  0.87500
E85   E   0.35355  0.07322  0.17678
E86   E   0.35355  0.07322  0.82322
E87   E   0.35355  0.17678  0.07322
E88   E   0.35355  0.17678  0.92678
E89   E   0.35355  0.82322  0.07322
E90   E   0.35355  0.82322  0.92678
E91   E   0.35355  0.92678  0.17678
E92   E   0.35355  0.92678  0.82322
E93   E   0.42678  0.00000  0.17678
E94   E   0.42678  0.00000  0.82322
E95   E   0.42678  0.12500  0.12500
E96   E   0.42678  0.12500  0.87500
E97   E   0.42678  0.17678  0.00000
E98   E   0.42678  0.82322  0.00000
E99   E   0.42678  0.87500  0.12500
E100  E   0.42678  0.87500  0.87500
E101  E   0.50000  0.07322  0.17678
E102  E   0.50000  0.07322  0.82322
E103  E   0.50000  0.17678  0.07322
E104  E   0.50000  0.17678  0.92678
E105  E   0.50000  0.82322  0.07322
E106  E   0.50000  0.82322  0.92678
E107  E   0.50000  0.92678  0.17678
E108  E   0.50000  0.92678  0.82322
E109  E   0.57322  0.00000  0.17678
E110  E   0.57322  0.00000  0.82322
E111  E   0.57322  0.12500  0.12500
E112  E   0.57322  0.12500  0.87500
E113  E   0.57322  0.17678  0.00000
E114  E   0.57322  0.82322  0.00000
E115  E   0.57322  0.87500  0.12500
E116  E   0.57322  0.87500  0.87500
E117  E   0.64645  0.07322  0.17678
E118  E   0.64645  0.07322  0.82322
E119  E   0.64645  0.17678  0.07322
E120  E   0.64645  0.17678  0.92678
E121  E   0.64645  0.82322  0.07322
E122  E   0.64645  0.82322  0.92678
E123  E   0.64645  0.92678  0.17678
E124  E   0.64645  0.92678  0.82322
E125  E   0.71967  0.00000  0.17678
E126  E   0.71967  0.00000  0.82322
E127  E   0.71967  0.12500  0.12500
E128  E   0.71967  0.12500  0.87500
E129  E   0.71967  0.17678  0.00000
E130  E   0.71967  0.82322  0.00000
E131  E   0.71967  0.87500  0.12500
E132  E   0.71967  0.87500  0.87500
E133  E   0.77145  0.07322  0.22855
E134  E   0.77145  0.07322  0.77145
E135  E   0.77145  0.22855  0.07322
E136  E   0.77145  0.22855  0.92678
E137  E   0.77145  0.77145  0.07322
E138  E   0.77145  0.77145  0.92678
E139  E   0.77145  0.92678  0.22855
E140  E   0.77145  0.92678  0.77145
E141  E   0.82322  0.00000  0.28033
E142  E   0.82322  0.00000  0.42678
E143  E   0.82322  0.00000  0.57322
E144  E   0.82322  0.00000  0.71967
E145  E   0.82322  0.07322  0.35355
E146  E   0.82322  0.07322  0.50000
E147  E   0.82322  0.07322  0.64645
E148  E   0.82322  0.28033  0.00000
E149  E   0.82322  0.35355  0.07322
E150  E   0.82322  0.35355  0.92678
E151  E   0.82322  0.42678  0.00000
E152  E   0.82322  0.50000  0.07322
E153  E   0.82322  0.50000  0.92678
E154  E   0.82322  0.57322  0.00000
E155  E   0.82322  0.64645  0.07322
E156  E   0.82322  0.64645  0.92678
E157  E   0.82322  0.71967  0.00000
E158  E   0.82322  0.92678  0.35355
E159  E   0.82322  0.92678  0.50000
E160  E   0.82322  0.92678  0.64645
E161  E   0.87500  0.12500  0.28033
E162  E   0.87500  0.12500  0.42678
E163  E   0.87500  0.12500  0.57322
E164  E   0.87500  0.12500  0.71967
E165  E   0.87500  0.28033  0.12500
E166  E   0.87500  0.28033  0.87500
E167  E   0.87500  0.42678  0.12500
E168  E   0.87500  0.42678  0.87500
E169  E   0.87500  0.57322  0.12500
E170  E   0.87500  0.57322  0.87500
E171  E   0.87500  0.71967  0.12500
E172  E   0.87500  0.71967  0.87500
E173  E   0.87500  0.87500  0.28033
E174  E   0.87500  0.87500  0.42678
E175  E   0.87500  0.87500  0.57322
E176  E   0.87500  0.87500  0.71967
E177  E   0.92678  0.17678  0.35355
E178  E   0.92678  0.17678  0.50000
E179  E   0.92678  0.17678  0.64645
E180  E   0.92678  0.22855  0.22855
E181  E   0.92678  0.22855  0.77145
E182  E   0.92678  0.35355  0.17678
E183  E   0.92678  0.35355  0.82322
E184  E   0.92678  0.50000  0.17678
E185  E   0.92678  0.50000  0.82322
E186  E   0.92678  0.64645  0.17678
E187  E   0.92678  0.64645  0.82322
E188  E   0.92678  0.77145  0.22855
E189  E   0.92678  0.77145  0.77145
E190  E   0.92678  0.82322  0.35355
E191  E   0.92678  0.82322  0.50000
E192  E   0.92678  0.82322  0.64645
loop_
