data_fuh_Pm-3n  hall_number: 520, V_con: 4, EC_con: 4
_audit_creation_date              2025-03-05
_audit_creation_method            'MOFbuilder_1.0'
_symmetry_space_group_name_H-M    'P1'
_symmetry_Int_Tables_number       1
_symmetry_cell_setting            triclinic
loop_
_symmetry_equiv_pos_as_xyz
  x,y,z
_cell_length_a                    56.4574
_cell_length_b                    56.4574
_cell_length_c                    56.4574
_cell_angle_alpha                 90.0
_cell_angle_beta                  90.0
_cell_angle_gamma                 90.0
loop_
_atom_site_label
_atom_site_type_symbol
_atom_site_fract_x
_atom_site_fract_y
_atom_site_fract_z
V1    V   0.08856  0.41144  0.16144
V2    V   0.08856  0.41144  0.83856
V3    V   0.08856  0.58856  0.16144
V4    V   0.08856  0.58856  0.83856
V5    V   0.08856  0.41144  0.33856
V6    V   0.08856  0.41144  0.66144
V7    V   0.08856  0.58856  0.33856
V8    V   0.08856  0.58856  0.66144
V9    V   0.16144  0.08856  0.41144
V10   V   0.16144  0.08856  0.58856
V11   V   0.16144  0.91144  0.41144
V12   V   0.16144  0.91144  0.58856
V13   V   0.33856  0.08856  0.41144
V14   V   0.33856  0.08856  0.58856
V15   V   0.33856  0.91144  0.41144
V16   V   0.33856  0.91144  0.58856
V17   V   0.41144  0.16144  0.08856
V18   V   0.41144  0.16144  0.91144
V19   V   0.41144  0.83856  0.08856
V20   V   0.41144  0.83856  0.91144
V21   V   0.41144  0.33856  0.08856
V22   V   0.41144  0.33856  0.91144
V23   V   0.41144  0.66144  0.08856
V24   V   0.41144  0.66144  0.91144
V25   V   0.58856  0.16144  0.08856
V26   V   0.58856  0.16144  0.91144
V27   V   0.58856  0.33856  0.08856
V28   V   0.58856  0.33856  0.91144
V29   V   0.58856  0.66144  0.08856
V30   V   0.58856  0.66144  0.91144
V31   V   0.58856  0.83856  0.08856
V32   V   0.58856  0.83856  0.91144
V33   V   0.66144  0.08856  0.41144
V34   V   0.66144  0.08856  0.58856
V35   V   0.66144  0.91144  0.41144
V36   V   0.66144  0.91144  0.58856
V37   V   0.83856  0.08856  0.41144
V38   V   0.83856  0.08856  0.58856
V39   V   0.83856  0.91144  0.41144
V40   V   0.83856  0.91144  0.58856
V41   V   0.91144  0.41144  0.16144
V42   V   0.91144  0.41144  0.83856
V43   V   0.91144  0.41144  0.33856
V44   V   0.91144  0.41144  0.66144
V45   V   0.91144  0.58856  0.16144
V46   V   0.91144  0.58856  0.33856
V47   V   0.91144  0.58856  0.66144
V48   V   0.91144  0.58856  0.83856
EC1    EC   0.08856  0.25000  0.41144
EC2    EC   0.08856  0.25000  0.58856
EC3    EC   0.08856  0.75000  0.41144
EC4    EC   0.08856  0.75000  0.58856
EC5    EC   0.08856  0.25000  0.41144
EC6    EC   0.08856  0.25000  0.58856
EC7    EC   0.08856  0.75000  0.41144
EC8    EC   0.08856  0.75000  0.58856
EC9    EC   0.25000  0.41144  0.08856
EC10   EC   0.25000  0.41144  0.91144
EC11   EC   0.25000  0.41144  0.08856
EC12   EC   0.25000  0.41144  0.91144
EC13   EC   0.25000  0.58856  0.08856
EC14   EC   0.25000  0.58856  0.08856
EC15   EC   0.25000  0.58856  0.91144
EC16   EC   0.41144  0.08856  0.25000
EC17   EC   0.41144  0.08856  0.75000
EC18   EC   0.41144  0.91144  0.25000
EC19   EC   0.41144  0.91144  0.75000
EC20   EC   0.41144  0.08856  0.25000
EC21   EC   0.41144  0.08856  0.75000
EC22   EC   0.41144  0.91144  0.25000
EC23   EC   0.41144  0.91144  0.75000
EC24   EC   0.58856  0.08856  0.25000
EC25   EC   0.58856  0.08856  0.75000
EC26   EC   0.58856  0.08856  0.25000
EC27   EC   0.58856  0.08856  0.75000
EC28   EC   0.58856  0.91144  0.25000
EC29   EC   0.58856  0.91144  0.75000
EC30   EC   0.75000  0.41144  0.08856
EC31   EC   0.75000  0.41144  0.91144
EC32   EC   0.75000  0.41144  0.08856
EC33   EC   0.75000  0.41144  0.91144
EC34   EC   0.75000  0.58856  0.08856
EC35   EC   0.75000  0.58856  0.08856
EC36   EC   0.75000  0.58856  0.91144
EC37   EC   0.91144  0.25000  0.41144
EC38   EC   0.91144  0.25000  0.41144
EC39   EC   0.91144  0.25000  0.58856
EC40   EC   0.91144  0.75000  0.41144
EC41   EC   0.91144  0.75000  0.41144
EC42   EC   0.91144  0.75000  0.58856
E1    E   0.00000  0.25000  0.41144
E2    E   0.00000  0.25000  0.58856
E3    E   0.00000  0.41144  0.16144
E4    E   0.00000  0.41144  0.83856
E5    E   0.00000  0.41144  0.33856
E6    E   0.00000  0.41144  0.66144
E7    E   0.00000  0.58856  0.16144
E8    E   0.00000  0.58856  0.33856
E9    E   0.00000  0.58856  0.66144
E10   E   0.00000  0.58856  0.83856
E11   E   0.00000  0.75000  0.41144
E12   E   0.00000  0.75000  0.58856
E13   E   0.08856  0.25000  0.50000
E14   E   0.08856  0.41144  0.25000
E15   E   0.08856  0.41144  0.75000
E16   E   0.08856  0.50000  0.16144
E17   E   0.08856  0.50000  0.83856
E18   E   0.08856  0.58856  0.25000
E19   E   0.08856  0.58856  0.75000
E20   E   0.08856  0.75000  0.50000
E21   E   0.08856  0.33072  0.37500
E22   E   0.08856  0.33072  0.62500
E23   E   0.08856  0.41144  0.25000
E24   E   0.08856  0.41144  0.75000
E25   E   0.08856  0.50000  0.33856
E26   E   0.08856  0.50000  0.66144
E27   E   0.08856  0.58856  0.25000
E28   E   0.08856  0.58856  0.75000
E29   E   0.08856  0.66928  0.37500
E30   E   0.08856  0.66928  0.62500
E31   E   0.12500  0.16928  0.41144
E32   E   0.12500  0.16928  0.58856
E33   E   0.12500  0.83072  0.41144
E34   E   0.12500  0.83072  0.58856
E35   E   0.16144  0.00000  0.41144
E36   E   0.16144  0.00000  0.58856
E37   E   0.16144  0.08856  0.50000
E38   E   0.16144  0.91144  0.50000
E39   E   0.16928  0.41144  0.12500
E40   E   0.16928  0.41144  0.87500
E41   E   0.16928  0.58856  0.12500
E42   E   0.16928  0.58856  0.87500
E43   E   0.25000  0.08856  0.41144
E44   E   0.25000  0.08856  0.58856
E45   E   0.25000  0.08856  0.41144
E46   E   0.25000  0.08856  0.58856
E47   E   0.25000  0.41144  0.00000
E48   E   0.25000  0.50000  0.08856
E49   E   0.25000  0.50000  0.91144
E50   E   0.25000  0.58856  0.00000
E51   E   0.25000  0.91144  0.41144
E52   E   0.25000  0.91144  0.41144
E53   E   0.25000  0.91144  0.58856
E54   E   0.33072  0.37500  0.08856
E55   E   0.33072  0.37500  0.91144
E56   E   0.33072  0.62500  0.08856
E57   E   0.33072  0.62500  0.91144
E58   E   0.33856  0.00000  0.41144
E59   E   0.33856  0.00000  0.58856
E60   E   0.33856  0.08856  0.50000
E61   E   0.33856  0.91144  0.50000
E62   E   0.37500  0.08856  0.33072
E63   E   0.37500  0.08856  0.66928
E64   E   0.37500  0.91144  0.33072
E65   E   0.37500  0.91144  0.66928
E66   E   0.41144  0.12500  0.16928
E67   E   0.41144  0.12500  0.83072
E68   E   0.41144  0.16144  0.00000
E69   E   0.41144  0.25000  0.08856
E70   E   0.41144  0.25000  0.91144
E71   E   0.41144  0.75000  0.08856
E72   E   0.41144  0.75000  0.91144
E73   E   0.41144  0.83856  0.00000
E74   E   0.41144  0.87500  0.16928
E75   E   0.41144  0.87500  0.83072
E76   E   0.41144  0.00000  0.25000
E77   E   0.41144  0.00000  0.75000
E78   E   0.41144  0.25000  0.08856
E79   E   0.41144  0.25000  0.91144
E80   E   0.41144  0.33856  0.00000
E81   E   0.41144  0.66144  0.00000
E82   E   0.41144  0.75000  0.08856
E83   E   0.41144  0.75000  0.91144
E84   E   0.50000  0.08856  0.25000
E85   E   0.50000  0.08856  0.75000
E86   E   0.50000  0.16144  0.08856
E87   E   0.50000  0.16144  0.91144
E88   E   0.50000  0.33856  0.08856
E89   E   0.50000  0.33856  0.91144
E90   E   0.50000  0.66144  0.08856
E91   E   0.50000  0.66144  0.91144
E92   E   0.50000  0.83856  0.08856
E93   E   0.50000  0.83856  0.91144
E94   E   0.50000  0.91144  0.25000
E95   E   0.50000  0.91144  0.75000
E96   E   0.58856  0.00000  0.25000
E97   E   0.58856  0.00000  0.75000
E98   E   0.58856  0.12500  0.16928
E99   E   0.58856  0.12500  0.83072
E100  E   0.58856  0.16144  0.00000
E101  E   0.58856  0.25000  0.08856
E102  E   0.58856  0.25000  0.08856
E103  E   0.58856  0.25000  0.91144
E104  E   0.58856  0.33856  0.00000
E105  E   0.58856  0.66144  0.00000
E106  E   0.58856  0.75000  0.08856
E107  E   0.58856  0.75000  0.08856
E108  E   0.58856  0.75000  0.91144
E109  E   0.58856  0.83856  0.00000
E110  E   0.58856  0.87500  0.16928
E111  E   0.58856  0.87500  0.83072
E112  E   0.62500  0.08856  0.33072
E113  E   0.62500  0.08856  0.66928
E114  E   0.62500  0.91144  0.33072
E115  E   0.62500  0.91144  0.66928
E116  E   0.66144  0.00000  0.41144
E117  E   0.66144  0.00000  0.58856
E118  E   0.66144  0.08856  0.50000
E119  E   0.66144  0.91144  0.50000
E120  E   0.66928  0.37500  0.08856
E121  E   0.66928  0.37500  0.91144
E122  E   0.66928  0.62500  0.08856
E123  E   0.66928  0.62500  0.91144
E124  E   0.75000  0.08856  0.41144
E125  E   0.75000  0.08856  0.58856
E126  E   0.75000  0.08856  0.41144
E127  E   0.75000  0.08856  0.58856
E128  E   0.75000  0.41144  0.00000
E129  E   0.75000  0.50000  0.08856
E130  E   0.75000  0.50000  0.91144
E131  E   0.75000  0.58856  0.00000
E132  E   0.75000  0.91144  0.41144
E133  E   0.75000  0.91144  0.41144
E134  E   0.75000  0.91144  0.58856
E135  E   0.83072  0.41144  0.12500
E136  E   0.83072  0.41144  0.87500
E137  E   0.83072  0.58856  0.12500
E138  E   0.83072  0.58856  0.87500
E139  E   0.83856  0.00000  0.41144
E140  E   0.83856  0.00000  0.58856
E141  E   0.83856  0.08856  0.50000
E142  E   0.83856  0.91144  0.50000
E143  E   0.87500  0.16928  0.41144
E144  E   0.87500  0.16928  0.58856
E145  E   0.87500  0.83072  0.41144
E146  E   0.87500  0.83072  0.58856
E147  E   0.91144  0.25000  0.50000
E148  E   0.91144  0.33072  0.37500
E149  E   0.91144  0.33072  0.62500
E150  E   0.91144  0.41144  0.25000
E151  E   0.91144  0.41144  0.75000
E152  E   0.91144  0.41144  0.25000
E153  E   0.91144  0.41144  0.75000
E154  E   0.91144  0.50000  0.16144
E155  E   0.91144  0.50000  0.33856
E156  E   0.91144  0.50000  0.66144
E157  E   0.91144  0.50000  0.83856
E158  E   0.91144  0.58856  0.25000
E159  E   0.91144  0.58856  0.75000
E160  E   0.91144  0.66928  0.37500
E161  E   0.91144  0.66928  0.62500
E162  E   0.91144  0.75000  0.50000
loop_
