data_ful_Pn-3m:2  hall_number: 522, V_con: 4, EC_con: 4
_audit_creation_date              2025-03-05
_audit_creation_method            'MOFbuilder_1.0'
_symmetry_space_group_name_H-M    'P1'
_symmetry_Int_Tables_number       1
_symmetry_cell_setting            triclinic
loop_
_symmetry_equiv_pos_as_xyz
  x,y,z
_cell_length_a                    61.847899999999996
_cell_length_b                    61.847899999999996
_cell_length_c                    61.847899999999996
_cell_angle_alpha                 90.0
_cell_angle_beta                  90.0
_cell_angle_gamma                 90.0
loop_
_atom_site_label
_atom_site_type_symbol
_atom_site_fract_x
_atom_site_fract_y
_atom_site_fract_z
V1    V   0.13567  0.25000  0.66916
V2    V   0.13567  0.25000  0.83084
V3    V   0.13567  0.66916  0.25000
V4    V   0.13567  0.83084  0.25000
V5    V   0.16916  0.63567  0.75000
V6    V   0.16916  0.75000  0.63567
V7    V   0.16916  0.75000  0.86433
V8    V   0.16916  0.86433  0.75000
V9    V   0.25000  0.13567  0.66916
V10   V   0.25000  0.13567  0.83084
V11   V   0.25000  0.36433  0.66916
V12   V   0.25000  0.36433  0.83084
V13   V   0.25000  0.66916  0.13567
V14   V   0.25000  0.66916  0.36433
V15   V   0.25000  0.83084  0.13567
V16   V   0.25000  0.83084  0.36433
V17   V   0.33084  0.63567  0.75000
V18   V   0.33084  0.75000  0.63567
V19   V   0.33084  0.75000  0.86433
V20   V   0.33084  0.86433  0.75000
V21   V   0.36433  0.25000  0.66916
V22   V   0.36433  0.25000  0.83084
V23   V   0.36433  0.66916  0.25000
V24   V   0.36433  0.83084  0.25000
V25   V   0.63567  0.16916  0.75000
V26   V   0.63567  0.33084  0.75000
V27   V   0.63567  0.75000  0.16916
V28   V   0.63567  0.75000  0.33084
V29   V   0.66916  0.13567  0.25000
V30   V   0.66916  0.25000  0.13567
V31   V   0.66916  0.25000  0.36433
V32   V   0.66916  0.36433  0.25000
V33   V   0.75000  0.16916  0.63567
V34   V   0.75000  0.16916  0.86433
V35   V   0.75000  0.33084  0.63567
V36   V   0.75000  0.33084  0.86433
V37   V   0.75000  0.63567  0.16916
V38   V   0.75000  0.63567  0.33084
V39   V   0.75000  0.86433  0.16916
V40   V   0.75000  0.86433  0.33084
V41   V   0.83084  0.13567  0.25000
V42   V   0.83084  0.25000  0.13567
V43   V   0.83084  0.25000  0.36433
V44   V   0.83084  0.36433  0.25000
V45   V   0.86433  0.16916  0.75000
V46   V   0.86433  0.33084  0.75000
V47   V   0.86433  0.75000  0.16916
V48   V   0.86433  0.75000  0.33084
EC1    EC   0.04667  0.16100  0.56766
EC2    EC   0.04667  0.33900  0.93234
EC3    EC   0.04667  0.56766  0.16100
EC4    EC   0.04667  0.93234  0.33900
EC5    EC   0.06766  0.54667  0.83900
EC6    EC   0.06766  0.66100  0.95333
EC7    EC   0.06766  0.83900  0.54667
EC8    EC   0.06766  0.95333  0.66100
EC9    EC   0.16100  0.04667  0.56766
EC10   EC   0.16100  0.45333  0.93234
EC11   EC   0.16100  0.56766  0.04667
EC12   EC   0.16100  0.93234  0.45333
EC13   EC   0.33900  0.04667  0.93234
EC14   EC   0.33900  0.45333  0.56766
EC15   EC   0.33900  0.56766  0.45333
EC16   EC   0.33900  0.93234  0.04667
EC17   EC   0.43234  0.54667  0.66100
EC18   EC   0.43234  0.66100  0.54667
EC19   EC   0.43234  0.83900  0.95333
EC20   EC   0.43234  0.95333  0.83900
EC21   EC   0.45333  0.16100  0.93234
EC22   EC   0.45333  0.33900  0.56766
EC23   EC   0.45333  0.56766  0.33900
EC24   EC   0.45333  0.93234  0.16100
EC25   EC   0.54667  0.06766  0.83900
EC26   EC   0.54667  0.43234  0.66100
EC27   EC   0.54667  0.66100  0.43234
EC28   EC   0.54667  0.83900  0.06766
EC29   EC   0.56766  0.04667  0.16100
EC30   EC   0.56766  0.16100  0.04667
EC31   EC   0.56766  0.33900  0.45333
EC32   EC   0.56766  0.45333  0.33900
EC33   EC   0.66100  0.06766  0.95333
EC34   EC   0.66100  0.43234  0.54667
EC35   EC   0.66100  0.54667  0.43234
EC36   EC   0.66100  0.95333  0.06766
EC37   EC   0.83900  0.06766  0.54667
EC38   EC   0.83900  0.43234  0.95333
EC39   EC   0.83900  0.54667  0.06766
EC40   EC   0.83900  0.95333  0.43234
EC41   EC   0.93234  0.04667  0.33900
EC42   EC   0.93234  0.16100  0.45333
EC43   EC   0.93234  0.33900  0.04667
EC44   EC   0.93234  0.45333  0.16100
EC45   EC   0.95333  0.06766  0.66100
EC46   EC   0.95333  0.43234  0.83900
EC47   EC   0.95333  0.66100  0.06766
EC48   EC   0.95333  0.83900  0.43234
E1    E   0.00000  0.11433  0.61433
E2    E   0.00000  0.11433  0.61433
E3    E   0.00000  0.38567  0.88567
E4    E   0.00000  0.38567  0.88567
E5    E   0.00000  0.61433  0.11433
E6    E   0.00000  0.61433  0.11433
E7    E   0.00000  0.88567  0.38567
E8    E   0.00000  0.88567  0.38567
E9    E   0.01049  0.01049  0.66100
E10   E   0.01049  0.48951  0.83900
E11   E   0.01049  0.66100  0.01049
E12   E   0.01049  0.83900  0.48951
E13   E   0.01049  0.01049  0.66100
E14   E   0.01049  0.48951  0.83900
E15   E   0.01049  0.66100  0.01049
E16   E   0.01049  0.83900  0.48951
E17   E   0.06766  0.60384  0.89616
E18   E   0.06766  0.89616  0.60384
E19   E   0.09117  0.20550  0.61841
E20   E   0.09117  0.29450  0.88159
E21   E   0.09117  0.61841  0.20550
E22   E   0.09117  0.88159  0.29450
E23   E   0.10384  0.10384  0.56766
E24   E   0.10384  0.39616  0.93234
E25   E   0.10384  0.56766  0.10384
E26   E   0.10384  0.93234  0.39616
E27   E   0.11433  0.00000  0.61433
E28   E   0.11433  0.50000  0.88567
E29   E   0.11433  0.61433  0.00000
E30   E   0.11433  0.88567  0.50000
E31   E   0.11433  0.00000  0.61433
E32   E   0.11433  0.50000  0.88567
E33   E   0.11433  0.61433  0.00000
E34   E   0.11433  0.88567  0.50000
E35   E   0.11841  0.59117  0.79450
E36   E   0.11841  0.70550  0.90883
E37   E   0.11841  0.79450  0.59117
E38   E   0.11841  0.90883  0.70550
E39   E   0.13567  0.25000  0.75000
E40   E   0.13567  0.75000  0.25000
E41   E   0.16100  0.51049  0.98951
E42   E   0.16100  0.98951  0.51049
E43   E   0.16916  0.69284  0.69284
E44   E   0.16916  0.69284  0.80716
E45   E   0.16916  0.80716  0.69284
E46   E   0.16916  0.80716  0.80716
E47   E   0.19284  0.19284  0.66916
E48   E   0.19284  0.19284  0.83084
E49   E   0.19284  0.30716  0.66916
E50   E   0.19284  0.30716  0.83084
E51   E   0.19284  0.66916  0.19284
E52   E   0.19284  0.66916  0.30716
E53   E   0.19284  0.83084  0.19284
E54   E   0.19284  0.83084  0.30716
E55   E   0.20550  0.09117  0.61841
E56   E   0.20550  0.40883  0.88159
E57   E   0.20550  0.61841  0.09117
E58   E   0.20550  0.88159  0.40883
E59   E   0.25000  0.13567  0.75000
E60   E   0.25000  0.36433  0.75000
E61   E   0.25000  0.63567  0.75000
E62   E   0.25000  0.75000  0.13567
E63   E   0.25000  0.75000  0.36433
E64   E   0.25000  0.75000  0.63567
E65   E   0.25000  0.75000  0.86433
E66   E   0.25000  0.86433  0.75000
E67   E   0.29450  0.09117  0.88159
E68   E   0.29450  0.40883  0.61841
E69   E   0.29450  0.61841  0.40883
E70   E   0.29450  0.88159  0.09117
E71   E   0.30716  0.19284  0.66916
E72   E   0.30716  0.19284  0.83084
E73   E   0.30716  0.30716  0.66916
E74   E   0.30716  0.30716  0.83084
E75   E   0.30716  0.66916  0.19284
E76   E   0.30716  0.66916  0.30716
E77   E   0.30716  0.83084  0.19284
E78   E   0.30716  0.83084  0.30716
E79   E   0.33084  0.69284  0.69284
E80   E   0.33084  0.69284  0.80716
E81   E   0.33084  0.80716  0.69284
E82   E   0.33084  0.80716  0.80716
E83   E   0.33900  0.51049  0.51049
E84   E   0.33900  0.98951  0.98951
E85   E   0.36433  0.25000  0.75000
E86   E   0.36433  0.75000  0.25000
E87   E   0.38159  0.59117  0.70550
E88   E   0.38159  0.70550  0.59117
E89   E   0.38159  0.79450  0.90883
E90   E   0.38159  0.90883  0.79450
E91   E   0.38567  0.00000  0.88567
E92   E   0.38567  0.50000  0.61433
E93   E   0.38567  0.61433  0.50000
E94   E   0.38567  0.88567  0.00000
E95   E   0.38567  0.00000  0.88567
E96   E   0.38567  0.50000  0.61433
E97   E   0.38567  0.61433  0.50000
E98   E   0.38567  0.88567  0.00000
E99   E   0.39616  0.10384  0.93234
E100  E   0.39616  0.39616  0.56766
E101  E   0.39616  0.56766  0.39616
E102  E   0.39616  0.93234  0.10384
E103  E   0.40883  0.20550  0.88159
E104  E   0.40883  0.29450  0.61841
E105  E   0.40883  0.61841  0.29450
E106  E   0.40883  0.88159  0.20550
E107  E   0.43234  0.60384  0.60384
E108  E   0.43234  0.89616  0.89616
E109  E   0.48951  0.01049  0.83900
E110  E   0.48951  0.01049  0.83900
E111  E   0.48951  0.48951  0.66100
E112  E   0.48951  0.66100  0.48951
E113  E   0.48951  0.83900  0.01049
E114  E   0.48951  0.83900  0.01049
E115  E   0.50000  0.11433  0.88567
E116  E   0.50000  0.11433  0.88567
E117  E   0.50000  0.38567  0.61433
E118  E   0.50000  0.38567  0.61433
E119  E   0.50000  0.61433  0.38567
E120  E   0.50000  0.61433  0.38567
E121  E   0.50000  0.88567  0.11433
E122  E   0.50000  0.88567  0.11433
E123  E   0.51049  0.16100  0.98951
E124  E   0.51049  0.33900  0.51049
E125  E   0.51049  0.51049  0.33900
E126  E   0.51049  0.98951  0.16100
E127  E   0.56766  0.10384  0.10384
E128  E   0.56766  0.39616  0.39616
E129  E   0.59117  0.11841  0.79450
E130  E   0.59117  0.38159  0.70550
E131  E   0.59117  0.70550  0.38159
E132  E   0.59117  0.79450  0.11841
E133  E   0.60384  0.06766  0.89616
E134  E   0.60384  0.43234  0.60384
E135  E   0.60384  0.60384  0.43234
E136  E   0.60384  0.89616  0.06766
E137  E   0.61433  0.00000  0.11433
E138  E   0.61433  0.00000  0.11433
E139  E   0.61433  0.11433  0.00000
E140  E   0.61433  0.11433  0.00000
E141  E   0.61433  0.38567  0.50000
E142  E   0.61433  0.38567  0.50000
E143  E   0.61433  0.50000  0.38567
E144  E   0.61433  0.50000  0.38567
E145  E   0.61841  0.09117  0.20550
E146  E   0.61841  0.20550  0.09117
E147  E   0.61841  0.29450  0.40883
E148  E   0.61841  0.40883  0.29450
E149  E   0.63567  0.25000  0.75000
E150  E   0.63567  0.75000  0.25000
E151  E   0.66100  0.01049  0.01049
E152  E   0.66100  0.01049  0.01049
E153  E   0.66100  0.48951  0.48951
E154  E   0.66916  0.19284  0.19284
E155  E   0.66916  0.19284  0.30716
E156  E   0.66916  0.30716  0.19284
E157  E   0.66916  0.30716  0.30716
E158  E   0.69284  0.16916  0.69284
E159  E   0.69284  0.16916  0.80716
E160  E   0.69284  0.33084  0.69284
E161  E   0.69284  0.33084  0.80716
E162  E   0.69284  0.69284  0.16916
E163  E   0.69284  0.69284  0.33084
E164  E   0.69284  0.80716  0.16916
E165  E   0.69284  0.80716  0.33084
E166  E   0.70550  0.11841  0.90883
E167  E   0.70550  0.38159  0.59117
E168  E   0.70550  0.59117  0.38159
E169  E   0.70550  0.90883  0.11841
E170  E   0.75000  0.13567  0.25000
E171  E   0.75000  0.25000  0.13567
E172  E   0.75000  0.25000  0.36433
E173  E   0.75000  0.25000  0.63567
E174  E   0.75000  0.25000  0.86433
E175  E   0.75000  0.36433  0.25000
E176  E   0.75000  0.63567  0.25000
E177  E   0.75000  0.86433  0.25000
E178  E   0.79450  0.11841  0.59117
E179  E   0.79450  0.38159  0.90883
E180  E   0.79450  0.59117  0.11841
E181  E   0.79450  0.90883  0.38159
E182  E   0.80716  0.16916  0.69284
E183  E   0.80716  0.16916  0.80716
E184  E   0.80716  0.33084  0.69284
E185  E   0.80716  0.33084  0.80716
E186  E   0.80716  0.69284  0.16916
E187  E   0.80716  0.69284  0.33084
E188  E   0.80716  0.80716  0.16916
E189  E   0.80716  0.80716  0.33084
E190  E   0.83084  0.19284  0.19284
E191  E   0.83084  0.19284  0.30716
E192  E   0.83084  0.30716  0.19284
E193  E   0.83084  0.30716  0.30716
E194  E   0.83900  0.01049  0.48951
E195  E   0.83900  0.01049  0.48951
E196  E   0.83900  0.48951  0.01049
E197  E   0.83900  0.48951  0.01049
E198  E   0.86433  0.25000  0.75000
E199  E   0.86433  0.75000  0.25000
E200  E   0.88159  0.09117  0.29450
E201  E   0.88159  0.20550  0.40883
E202  E   0.88159  0.29450  0.09117
E203  E   0.88159  0.40883  0.20550
E204  E   0.88567  0.00000  0.38567
E205  E   0.88567  0.00000  0.38567
E206  E   0.88567  0.11433  0.50000
E207  E   0.88567  0.11433  0.50000
E208  E   0.88567  0.38567  0.00000
E209  E   0.88567  0.38567  0.00000
E210  E   0.88567  0.50000  0.11433
E211  E   0.88567  0.50000  0.11433
E212  E   0.89616  0.06766  0.60384
E213  E   0.89616  0.43234  0.89616
E214  E   0.89616  0.60384  0.06766
E215  E   0.89616  0.89616  0.43234
E216  E   0.90883  0.11841  0.70550
E217  E   0.90883  0.38159  0.79450
E218  E   0.90883  0.70550  0.11841
E219  E   0.90883  0.79450  0.38159
E220  E   0.93234  0.10384  0.39616
E221  E   0.93234  0.39616  0.10384
E222  E   0.98951  0.16100  0.51049
E223  E   0.98951  0.33900  0.98951
E224  E   0.98951  0.51049  0.16100
E225  E   0.98951  0.98951  0.33900
loop_
