data_fuo_I4/mmm  hall_number: 424, V_con: 4, EC_con: 4
_audit_creation_date              2025-03-05
_audit_creation_method            'MOFbuilder_1.0'
_symmetry_space_group_name_H-M    'P1'
_symmetry_Int_Tables_number       1
_symmetry_cell_setting            triclinic
loop_
_symmetry_equiv_pos_as_xyz
  x,y,z
_cell_length_a                    44.94500000000001
_cell_length_b                    44.94500000000001
_cell_length_c                    66.5704
_cell_angle_alpha                 90.0
_cell_angle_beta                  90.0
_cell_angle_gamma                 90.0
loop_
_atom_site_label
_atom_site_type_symbol
_atom_site_fract_x
_atom_site_fract_y
_atom_site_fract_z
V1    V   0.11125  0.38875  0.07511
V2    V   0.11125  0.38875  0.92489
V3    V   0.11125  0.61125  0.07511
V4    V   0.11125  0.61125  0.92489
V5    V   0.11125  0.38875  0.42489
V6    V   0.11125  0.38875  0.57511
V7    V   0.11125  0.61125  0.42489
V8    V   0.11125  0.61125  0.57511
V9    V   0.38875  0.11125  0.07511
V10   V   0.38875  0.11125  0.92489
V11   V   0.38875  0.11125  0.42489
V12   V   0.38875  0.11125  0.57511
V13   V   0.38875  0.88875  0.42489
V14   V   0.38875  0.88875  0.57511
V15   V   0.38875  0.88875  0.07511
V16   V   0.38875  0.88875  0.92489
V17   V   0.61125  0.11125  0.42489
V18   V   0.61125  0.11125  0.57511
V19   V   0.61125  0.88875  0.42489
V20   V   0.61125  0.88875  0.57511
V21   V   0.61125  0.11125  0.07511
V22   V   0.61125  0.11125  0.92489
V23   V   0.61125  0.88875  0.07511
V24   V   0.61125  0.88875  0.92489
V25   V   0.88875  0.38875  0.42489
V26   V   0.88875  0.38875  0.57511
V27   V   0.88875  0.61125  0.42489
V28   V   0.88875  0.61125  0.57511
V29   V   0.88875  0.38875  0.07511
V30   V   0.88875  0.38875  0.92489
V31   V   0.88875  0.61125  0.07511
V32   V   0.88875  0.61125  0.92489
EC1    EC   0.11125  0.26857  0.29847
EC2    EC   0.11125  0.26857  0.70153
EC3    EC   0.11125  0.73143  0.29847
EC4    EC   0.11125  0.73143  0.70153
EC5    EC   0.23143  0.38875  0.20153
EC6    EC   0.23143  0.38875  0.79847
EC7    EC   0.23143  0.61125  0.20153
EC8    EC   0.23143  0.61125  0.79847
EC9    EC   0.26857  0.11125  0.29847
EC10   EC   0.26857  0.11125  0.70153
EC11   EC   0.26857  0.88875  0.29847
EC12   EC   0.26857  0.88875  0.70153
EC13   EC   0.38875  0.23143  0.20153
EC14   EC   0.38875  0.23143  0.79847
EC15   EC   0.38875  0.76857  0.20153
EC16   EC   0.38875  0.76857  0.79847
EC17   EC   0.61125  0.23143  0.20153
EC18   EC   0.61125  0.23143  0.79847
EC19   EC   0.61125  0.76857  0.20153
EC20   EC   0.61125  0.76857  0.79847
EC21   EC   0.73143  0.11125  0.29847
EC22   EC   0.73143  0.11125  0.70153
EC23   EC   0.73143  0.88875  0.29847
EC24   EC   0.73143  0.88875  0.70153
EC25   EC   0.76857  0.38875  0.20153
EC26   EC   0.76857  0.38875  0.79847
EC27   EC   0.76857  0.61125  0.20153
EC28   EC   0.76857  0.61125  0.79847
EC29   EC   0.88875  0.26857  0.29847
EC30   EC   0.88875  0.26857  0.70153
EC31   EC   0.88875  0.73143  0.29847
EC32   EC   0.88875  0.73143  0.70153
E1    E   0.00000  0.26857  0.29847
E2    E   0.00000  0.26857  0.70153
E3    E   0.00000  0.38875  0.07511
E4    E   0.00000  0.38875  0.42489
E5    E   0.00000  0.38875  0.57511
E6    E   0.00000  0.38875  0.92489
E7    E   0.00000  0.61125  0.42489
E8    E   0.00000  0.61125  0.57511
E9    E   0.00000  0.61125  0.07511
E10   E   0.00000  0.61125  0.92489
E11   E   0.00000  0.73143  0.29847
E12   E   0.00000  0.73143  0.70153
E13   E   0.11125  0.38875  0.00000
E14   E   0.11125  0.50000  0.07511
E15   E   0.11125  0.50000  0.92489
E16   E   0.11125  0.61125  0.00000
E17   E   0.11125  0.32866  0.36168
E18   E   0.11125  0.32866  0.63832
E19   E   0.11125  0.38875  0.50000
E20   E   0.11125  0.50000  0.42489
E21   E   0.11125  0.50000  0.57511
E22   E   0.11125  0.61125  0.50000
E23   E   0.11125  0.67134  0.36168
E24   E   0.11125  0.67134  0.63832
E25   E   0.17134  0.32866  0.25000
E26   E   0.17134  0.32866  0.75000
E27   E   0.17134  0.38875  0.13832
E28   E   0.17134  0.38875  0.86168
E29   E   0.17134  0.61125  0.13832
E30   E   0.17134  0.61125  0.86168
E31   E   0.17134  0.67134  0.25000
E32   E   0.17134  0.67134  0.75000
E33   E   0.18991  0.18991  0.29847
E34   E   0.18991  0.18991  0.70153
E35   E   0.18991  0.81009  0.29847
E36   E   0.18991  0.81009  0.70153
E37   E   0.23143  0.50000  0.20153
E38   E   0.23143  0.50000  0.79847
E39   E   0.26857  0.00000  0.29847
E40   E   0.26857  0.00000  0.70153
E41   E   0.31009  0.31009  0.20153
E42   E   0.31009  0.31009  0.79847
E43   E   0.31009  0.68991  0.20153
E44   E   0.31009  0.68991  0.79847
E45   E   0.32866  0.11125  0.36168
E46   E   0.32866  0.11125  0.63832
E47   E   0.32866  0.17134  0.25000
E48   E   0.32866  0.17134  0.75000
E49   E   0.32866  0.82866  0.25000
E50   E   0.32866  0.82866  0.75000
E51   E   0.32866  0.88875  0.36168
E52   E   0.32866  0.88875  0.63832
E53   E   0.38875  0.00000  0.07511
E54   E   0.38875  0.00000  0.42489
E55   E   0.38875  0.00000  0.57511
E56   E   0.38875  0.00000  0.92489
E57   E   0.38875  0.11125  0.00000
E58   E   0.38875  0.11125  0.50000
E59   E   0.38875  0.17134  0.13832
E60   E   0.38875  0.17134  0.86168
E61   E   0.38875  0.82866  0.13832
E62   E   0.38875  0.82866  0.86168
E63   E   0.38875  0.88875  0.50000
E64   E   0.38875  0.88875  0.00000
E65   E   0.50000  0.11125  0.07511
E66   E   0.50000  0.11125  0.92489
E67   E   0.50000  0.11125  0.42489
E68   E   0.50000  0.11125  0.57511
E69   E   0.50000  0.23143  0.20153
E70   E   0.50000  0.23143  0.79847
E71   E   0.50000  0.76857  0.20153
E72   E   0.50000  0.76857  0.79847
E73   E   0.50000  0.88875  0.42489
E74   E   0.50000  0.88875  0.57511
E75   E   0.50000  0.88875  0.07511
E76   E   0.50000  0.88875  0.92489
E77   E   0.61125  0.00000  0.42489
E78   E   0.61125  0.00000  0.57511
E79   E   0.61125  0.11125  0.50000
E80   E   0.61125  0.88875  0.50000
E81   E   0.61125  0.00000  0.07511
E82   E   0.61125  0.00000  0.92489
E83   E   0.61125  0.11125  0.00000
E84   E   0.61125  0.17134  0.13832
E85   E   0.61125  0.17134  0.86168
E86   E   0.61125  0.82866  0.13832
E87   E   0.61125  0.82866  0.86168
E88   E   0.61125  0.88875  0.00000
E89   E   0.67134  0.11125  0.36168
E90   E   0.67134  0.11125  0.63832
E91   E   0.67134  0.17134  0.25000
E92   E   0.67134  0.17134  0.75000
E93   E   0.67134  0.82866  0.25000
E94   E   0.67134  0.82866  0.75000
E95   E   0.67134  0.88875  0.36168
E96   E   0.67134  0.88875  0.63832
E97   E   0.68991  0.31009  0.20153
E98   E   0.68991  0.31009  0.79847
E99   E   0.68991  0.68991  0.20153
E100  E   0.68991  0.68991  0.79847
E101  E   0.73143  0.00000  0.29847
E102  E   0.73143  0.00000  0.70153
E103  E   0.76857  0.50000  0.20153
E104  E   0.76857  0.50000  0.79847
E105  E   0.81009  0.18991  0.29847
E106  E   0.81009  0.18991  0.70153
E107  E   0.81009  0.81009  0.29847
E108  E   0.81009  0.81009  0.70153
E109  E   0.82866  0.32866  0.25000
E110  E   0.82866  0.32866  0.75000
E111  E   0.82866  0.38875  0.13832
E112  E   0.82866  0.38875  0.86168
E113  E   0.82866  0.61125  0.13832
E114  E   0.82866  0.61125  0.86168
E115  E   0.82866  0.67134  0.25000
E116  E   0.82866  0.67134  0.75000
E117  E   0.88875  0.32866  0.36168
E118  E   0.88875  0.32866  0.63832
E119  E   0.88875  0.38875  0.50000
E120  E   0.88875  0.50000  0.42489
E121  E   0.88875  0.50000  0.57511
E122  E   0.88875  0.61125  0.50000
E123  E   0.88875  0.67134  0.36168
E124  E   0.88875  0.67134  0.63832
E125  E   0.88875  0.38875  0.00000
E126  E   0.88875  0.50000  0.07511
E127  E   0.88875  0.50000  0.92489
E128  E   0.88875  0.61125  0.00000
loop_
