data_fup_P4/nmm:2  hall_number: 409, V_con: 4, EC_con: 4
_audit_creation_date              2025-03-05
_audit_creation_method            'MOFbuilder_1.0'
_symmetry_space_group_name_H-M    'P1'
_symmetry_Int_Tables_number       1
_symmetry_cell_setting            triclinic
loop_
_symmetry_equiv_pos_as_xyz
  x,y,z
_cell_length_a                    44.8806
_cell_length_b                    44.8806
_cell_length_c                    33.379599999999996
_cell_angle_alpha                 90.0
_cell_angle_beta                  90.0
_cell_angle_gamma                 90.0
loop_
_atom_site_label
_atom_site_type_symbol
_atom_site_fract_x
_atom_site_fract_y
_atom_site_fract_z
V1    V   0.01896  0.63859  0.90253
V2    V   0.01896  0.86141  0.90253
V3    V   0.13859  0.51896  0.09747
V4    V   0.13859  0.98104  0.09747
V5    V   0.36141  0.51896  0.09747
V6    V   0.36141  0.98104  0.09747
V7    V   0.48104  0.63859  0.90253
V8    V   0.48104  0.86141  0.90253
V9    V   0.51896  0.13859  0.09747
V10   V   0.51896  0.36141  0.09747
V11   V   0.63859  0.01896  0.90253
V12   V   0.63859  0.48104  0.90253
V13   V   0.86141  0.01896  0.90253
V14   V   0.86141  0.48104  0.90253
V15   V   0.98104  0.13859  0.09747
V16   V   0.98104  0.36141  0.09747
EC1    EC   0.13859  0.63859  0.35021
EC2    EC   0.13859  0.63859  0.64979
EC3    EC   0.13859  0.86141  0.35021
EC4    EC   0.13859  0.86141  0.64979
EC5    EC   0.36141  0.63859  0.35021
EC6    EC   0.36141  0.63859  0.64979
EC7    EC   0.36141  0.86141  0.35021
EC8    EC   0.36141  0.86141  0.64979
EC9    EC   0.63859  0.13859  0.35021
EC10   EC   0.63859  0.13859  0.64979
EC11   EC   0.63859  0.36141  0.35021
EC12   EC   0.63859  0.36141  0.64979
EC13   EC   0.86141  0.13859  0.35021
EC14   EC   0.86141  0.13859  0.64979
EC15   EC   0.86141  0.36141  0.35021
EC16   EC   0.86141  0.36141  0.64979
E1    E   0.01896  0.75000  0.90253
E2    E   0.05982  0.05982  0.09747
E3    E   0.05982  0.44018  0.09747
E4    E   0.05982  0.05982  0.09747
E5    E   0.05982  0.44018  0.09747
E6    E   0.07878  0.57878  0.00000
E7    E   0.07878  0.92122  0.00000
E8    E   0.07878  0.57878  0.00000
E9    E   0.07878  0.63859  0.77616
E10   E   0.07878  0.86141  0.77616
E11   E   0.07878  0.92122  0.00000
E12   E   0.13859  0.57878  0.22384
E13   E   0.13859  0.63859  0.50000
E14   E   0.13859  0.75000  0.35021
E15   E   0.13859  0.75000  0.64979
E16   E   0.13859  0.86141  0.50000
E17   E   0.13859  0.92122  0.22384
E18   E   0.25000  0.51896  0.09747
E19   E   0.25000  0.63859  0.35021
E20   E   0.25000  0.63859  0.64979
E21   E   0.25000  0.86141  0.35021
E22   E   0.25000  0.86141  0.64979
E23   E   0.25000  0.98104  0.09747
E24   E   0.36141  0.57878  0.22384
E25   E   0.36141  0.63859  0.50000
E26   E   0.36141  0.75000  0.35021
E27   E   0.36141  0.75000  0.64979
E28   E   0.36141  0.86141  0.50000
E29   E   0.36141  0.92122  0.22384
E30   E   0.42122  0.57878  0.00000
E31   E   0.42122  0.92122  0.00000
E32   E   0.42122  0.57878  0.00000
E33   E   0.42122  0.63859  0.77616
E34   E   0.42122  0.86141  0.77616
E35   E   0.42122  0.92122  0.00000
E36   E   0.44018  0.05982  0.09747
E37   E   0.44018  0.05982  0.09747
E38   E   0.44018  0.44018  0.09747
E39   E   0.48104  0.75000  0.90253
E40   E   0.51896  0.25000  0.09747
E41   E   0.55982  0.55982  0.90253
E42   E   0.55982  0.94018  0.90253
E43   E   0.57878  0.07878  0.00000
E44   E   0.57878  0.07878  0.00000
E45   E   0.57878  0.13859  0.22384
E46   E   0.57878  0.36141  0.22384
E47   E   0.57878  0.42122  0.00000
E48   E   0.57878  0.42122  0.00000
E49   E   0.63859  0.07878  0.77616
E50   E   0.63859  0.13859  0.50000
E51   E   0.63859  0.25000  0.35021
E52   E   0.63859  0.25000  0.64979
E53   E   0.63859  0.36141  0.50000
E54   E   0.63859  0.42122  0.77616
E55   E   0.75000  0.01896  0.90253
E56   E   0.75000  0.13859  0.35021
E57   E   0.75000  0.13859  0.64979
E58   E   0.75000  0.36141  0.35021
E59   E   0.75000  0.36141  0.64979
E60   E   0.75000  0.48104  0.90253
E61   E   0.86141  0.07878  0.77616
E62   E   0.86141  0.13859  0.50000
E63   E   0.86141  0.25000  0.35021
E64   E   0.86141  0.25000  0.64979
E65   E   0.86141  0.36141  0.50000
E66   E   0.86141  0.42122  0.77616
E67   E   0.92122  0.07878  0.00000
E68   E   0.92122  0.07878  0.00000
E69   E   0.92122  0.13859  0.22384
E70   E   0.92122  0.36141  0.22384
E71   E   0.92122  0.42122  0.00000
E72   E   0.92122  0.42122  0.00000
E73   E   0.94018  0.55982  0.90253
E74   E   0.94018  0.94018  0.90253
E75   E   0.98104  0.25000  0.09747
loop_
