data_fur_I41/amd:2  hall_number: 427, V_con: 4, EC_con: 4
_audit_creation_date              2025-03-05
_audit_creation_method            'MOFbuilder_1.0'
_symmetry_space_group_name_H-M    'P1'
_symmetry_Int_Tables_number       1
_symmetry_cell_setting            triclinic
loop_
_symmetry_equiv_pos_as_xyz
  x,y,z
_cell_length_a                    52.946400000000004
_cell_length_b                    52.946400000000004
_cell_length_c                    37.2511
_cell_angle_alpha                 90.0
_cell_angle_beta                  90.0
_cell_angle_gamma                 90.0
loop_
_atom_site_label
_atom_site_type_symbol
_atom_site_fract_x
_atom_site_fract_y
_atom_site_fract_z
V1    V   0.09443  0.15557  0.74078
V2    V   0.09443  0.34443  0.74078
V3    V   0.09443  0.65557  0.25922
V4    V   0.09443  0.84443  0.25922
V5    V   0.09443  0.15557  0.00922
V6    V   0.09443  0.34443  0.00922
V7    V   0.09443  0.65557  0.99078
V8    V   0.09443  0.84443  0.99078
V9    V   0.40557  0.15557  0.75922
V10   V   0.40557  0.15557  0.49078
V11   V   0.40557  0.34443  0.49078
V12   V   0.40557  0.34443  0.75922
V13   V   0.40557  0.65557  0.24078
V14   V   0.40557  0.65557  0.50922
V15   V   0.40557  0.84443  0.24078
V16   V   0.40557  0.84443  0.50922
V17   V   0.59443  0.15557  0.75922
V18   V   0.59443  0.15557  0.49078
V19   V   0.59443  0.34443  0.49078
V20   V   0.59443  0.34443  0.75922
V21   V   0.59443  0.65557  0.24078
V22   V   0.59443  0.65557  0.50922
V23   V   0.59443  0.84443  0.24078
V24   V   0.59443  0.84443  0.50922
V25   V   0.90557  0.15557  0.74078
V26   V   0.90557  0.15557  0.00922
V27   V   0.90557  0.34443  0.00922
V28   V   0.90557  0.34443  0.74078
V29   V   0.90557  0.65557  0.25922
V30   V   0.90557  0.65557  0.99078
V31   V   0.90557  0.84443  0.25922
V32   V   0.90557  0.84443  0.99078
EC1    EC   0.20134  0.00000  0.00000
EC2    EC   0.20134  0.50000  0.00000
EC3    EC   0.25000  0.04866  0.75000
EC4    EC   0.25000  0.45134  0.75000
EC5    EC   0.25000  0.54866  0.25000
EC6    EC   0.25000  0.95134  0.25000
EC7    EC   0.29866  0.00000  0.50000
EC8    EC   0.29866  0.50000  0.50000
EC9    EC   0.70134  0.00000  0.50000
EC10   EC   0.70134  0.50000  0.50000
EC11   EC   0.75000  0.04866  0.75000
EC12   EC   0.75000  0.45134  0.75000
EC13   EC   0.75000  0.54866  0.25000
EC14   EC   0.75000  0.95134  0.25000
EC15   EC   0.79866  0.00000  0.00000
EC16   EC   0.79866  0.50000  0.00000
E1    E   0.00000  0.15557  0.74078
E2    E   0.00000  0.15557  0.00922
E3    E   0.00000  0.34443  0.00922
E4    E   0.00000  0.34443  0.74078
E5    E   0.00000  0.65557  0.25922
E6    E   0.00000  0.65557  0.99078
E7    E   0.00000  0.84443  0.25922
E8    E   0.00000  0.84443  0.99078
E9    E   0.09443  0.15557  0.87500
E10   E   0.09443  0.25000  0.74078
E11   E   0.09443  0.34443  0.87500
E12   E   0.09443  0.65557  0.12500
E13   E   0.09443  0.75000  0.25922
E14   E   0.09443  0.84443  0.12500
E15   E   0.09443  0.15557  0.87500
E16   E   0.09443  0.25000  0.00922
E17   E   0.09443  0.34443  0.87500
E18   E   0.09443  0.65557  0.12500
E19   E   0.09443  0.75000  0.99078
E20   E   0.09443  0.84443  0.12500
E21   E   0.14789  0.07778  0.00461
E22   E   0.14789  0.42222  0.00461
E23   E   0.14789  0.57778  0.99539
E24   E   0.14789  0.92222  0.99539
E25   E   0.17222  0.10211  0.74539
E26   E   0.17222  0.39789  0.74539
E27   E   0.17222  0.60211  0.25461
E28   E   0.17222  0.89789  0.25461
E29   E   0.22567  0.02433  0.87500
E30   E   0.22567  0.47567  0.87500
E31   E   0.22567  0.52433  0.12500
E32   E   0.22567  0.97567  0.12500
E33   E   0.22567  0.02433  0.87500
E34   E   0.22567  0.47567  0.87500
E35   E   0.22567  0.52433  0.12500
E36   E   0.22567  0.97567  0.12500
E37   E   0.27433  0.02433  0.62500
E38   E   0.27433  0.02433  0.62500
E39   E   0.27433  0.47567  0.62500
E40   E   0.27433  0.52433  0.37500
E41   E   0.27433  0.97567  0.37500
E42   E   0.32778  0.10211  0.75461
E43   E   0.32778  0.39789  0.75461
E44   E   0.32778  0.60211  0.24539
E45   E   0.32778  0.89789  0.24539
E46   E   0.35211  0.07778  0.49539
E47   E   0.35211  0.42222  0.49539
E48   E   0.35211  0.57778  0.50461
E49   E   0.35211  0.92222  0.50461
E50   E   0.40557  0.15557  0.62500
E51   E   0.40557  0.15557  0.62500
E52   E   0.40557  0.25000  0.49078
E53   E   0.40557  0.25000  0.75922
E54   E   0.40557  0.34443  0.62500
E55   E   0.40557  0.65557  0.37500
E56   E   0.40557  0.75000  0.24078
E57   E   0.40557  0.75000  0.50922
E58   E   0.40557  0.84443  0.37500
E59   E   0.50000  0.15557  0.75922
E60   E   0.50000  0.15557  0.49078
E61   E   0.50000  0.34443  0.49078
E62   E   0.50000  0.34443  0.75922
E63   E   0.50000  0.65557  0.24078
E64   E   0.50000  0.65557  0.50922
E65   E   0.50000  0.84443  0.24078
E66   E   0.50000  0.84443  0.50922
E67   E   0.59443  0.15557  0.62500
E68   E   0.59443  0.15557  0.62500
E69   E   0.59443  0.25000  0.49078
E70   E   0.59443  0.25000  0.75922
E71   E   0.59443  0.34443  0.62500
E72   E   0.59443  0.65557  0.37500
E73   E   0.59443  0.75000  0.24078
E74   E   0.59443  0.75000  0.50922
E75   E   0.59443  0.84443  0.37500
E76   E   0.64789  0.07778  0.49539
E77   E   0.64789  0.42222  0.49539
E78   E   0.64789  0.57778  0.50461
E79   E   0.64789  0.92222  0.50461
E80   E   0.67222  0.10211  0.75461
E81   E   0.67222  0.39789  0.75461
E82   E   0.67222  0.60211  0.24539
E83   E   0.67222  0.89789  0.24539
E84   E   0.72567  0.02433  0.62500
E85   E   0.72567  0.02433  0.62500
E86   E   0.72567  0.47567  0.62500
E87   E   0.72567  0.52433  0.37500
E88   E   0.72567  0.97567  0.37500
E89   E   0.77433  0.02433  0.87500
E90   E   0.77433  0.02433  0.87500
E91   E   0.77433  0.47567  0.87500
E92   E   0.77433  0.52433  0.12500
E93   E   0.77433  0.97567  0.12500
E94   E   0.82778  0.10211  0.74539
E95   E   0.82778  0.39789  0.74539
E96   E   0.82778  0.60211  0.25461
E97   E   0.82778  0.89789  0.25461
E98   E   0.85211  0.07778  0.00461
E99   E   0.85211  0.42222  0.00461
E100  E   0.85211  0.57778  0.99539
E101  E   0.85211  0.92222  0.99539
E102  E   0.90557  0.15557  0.87500
E103  E   0.90557  0.15557  0.87500
E104  E   0.90557  0.25000  0.00922
E105  E   0.90557  0.25000  0.74078
E106  E   0.90557  0.34443  0.87500
E107  E   0.90557  0.65557  0.12500
E108  E   0.90557  0.75000  0.25922
E109  E   0.90557  0.75000  0.99078
E110  E   0.90557  0.84443  0.12500
loop_
