data_fuv_Pm-3m  hall_number: 517, V_con: 4, EC_con: 4
_audit_creation_date              2025-03-05
_audit_creation_method            'MOFbuilder_1.0'
_symmetry_space_group_name_H-M    'P1'
_symmetry_Int_Tables_number       1
_symmetry_cell_setting            triclinic
loop_
_symmetry_equiv_pos_as_xyz
  x,y,z
_cell_length_a                    46.3896
_cell_length_b                    46.3896
_cell_length_c                    46.3896
_cell_angle_alpha                 90.0
_cell_angle_beta                  90.0
_cell_angle_gamma                 90.0
loop_
_atom_site_label
_atom_site_type_symbol
_atom_site_fract_x
_atom_site_fract_y
_atom_site_fract_z
V1    V   0.10778  0.26021  0.26021
V2    V   0.10778  0.26021  0.73979
V3    V   0.10778  0.73979  0.26021
V4    V   0.10778  0.73979  0.73979
V5    V   0.26021  0.10778  0.26021
V6    V   0.26021  0.10778  0.73979
V7    V   0.26021  0.26021  0.10778
V8    V   0.26021  0.26021  0.89222
V9    V   0.26021  0.73979  0.10778
V10   V   0.26021  0.73979  0.89222
V11   V   0.26021  0.89222  0.26021
V12   V   0.26021  0.89222  0.73979
V13   V   0.73979  0.10778  0.26021
V14   V   0.73979  0.10778  0.73979
V15   V   0.73979  0.26021  0.10778
V16   V   0.73979  0.26021  0.89222
V17   V   0.73979  0.73979  0.10778
V18   V   0.73979  0.73979  0.89222
V19   V   0.73979  0.89222  0.26021
V20   V   0.73979  0.89222  0.73979
V21   V   0.89222  0.26021  0.26021
V22   V   0.89222  0.26021  0.73979
V23   V   0.89222  0.73979  0.26021
V24   V   0.89222  0.73979  0.73979
EC1    EC   0.00000  0.39222  0.39222
EC2    EC   0.00000  0.39222  0.60778
EC3    EC   0.00000  0.60778  0.39222
EC4    EC   0.00000  0.60778  0.60778
EC5    EC   0.39222  0.00000  0.39222
EC6    EC   0.39222  0.00000  0.60778
EC7    EC   0.39222  0.39222  0.00000
EC8    EC   0.39222  0.60778  0.00000
EC9    EC   0.60778  0.00000  0.39222
EC10   EC   0.60778  0.00000  0.60778
EC11   EC   0.60778  0.39222  0.00000
EC12   EC   0.60778  0.60778  0.00000
E1    E   0.00000  0.26021  0.26021
E2    E   0.00000  0.26021  0.73979
E3    E   0.00000  0.39222  0.50000
E4    E   0.00000  0.50000  0.39222
E5    E   0.00000  0.50000  0.60778
E6    E   0.00000  0.60778  0.50000
E7    E   0.00000  0.73979  0.26021
E8    E   0.00000  0.73979  0.73979
E9    E   0.05389  0.32621  0.32621
E10   E   0.05389  0.32621  0.67379
E11   E   0.05389  0.67379  0.32621
E12   E   0.05389  0.67379  0.67379
E13   E   0.18400  0.18400  0.26021
E14   E   0.18400  0.18400  0.73979
E15   E   0.18400  0.26021  0.18400
E16   E   0.18400  0.26021  0.81600
E17   E   0.18400  0.73979  0.18400
E18   E   0.18400  0.73979  0.81600
E19   E   0.18400  0.81600  0.26021
E20   E   0.18400  0.81600  0.73979
E21   E   0.26021  0.00000  0.26021
E22   E   0.26021  0.00000  0.73979
E23   E   0.26021  0.18400  0.18400
E24   E   0.26021  0.18400  0.81600
E25   E   0.26021  0.26021  0.00000
E26   E   0.26021  0.73979  0.00000
E27   E   0.26021  0.81600  0.18400
E28   E   0.26021  0.81600  0.81600
E29   E   0.32621  0.05389  0.32621
E30   E   0.32621  0.05389  0.67379
E31   E   0.32621  0.32621  0.05389
E32   E   0.32621  0.32621  0.94611
E33   E   0.32621  0.67379  0.05389
E34   E   0.32621  0.67379  0.94611
E35   E   0.32621  0.94611  0.32621
E36   E   0.32621  0.94611  0.67379
E37   E   0.39222  0.00000  0.50000
E38   E   0.39222  0.50000  0.00000
E39   E   0.50000  0.00000  0.39222
E40   E   0.50000  0.00000  0.60778
E41   E   0.50000  0.39222  0.00000
E42   E   0.50000  0.60778  0.00000
E43   E   0.60778  0.00000  0.50000
E44   E   0.60778  0.50000  0.00000
E45   E   0.67379  0.05389  0.32621
E46   E   0.67379  0.05389  0.67379
E47   E   0.67379  0.32621  0.05389
E48   E   0.67379  0.32621  0.94611
E49   E   0.67379  0.67379  0.05389
E50   E   0.67379  0.67379  0.94611
E51   E   0.67379  0.94611  0.32621
E52   E   0.67379  0.94611  0.67379
E53   E   0.73979  0.00000  0.26021
E54   E   0.73979  0.00000  0.73979
E55   E   0.73979  0.18400  0.18400
E56   E   0.73979  0.18400  0.81600
E57   E   0.73979  0.26021  0.00000
E58   E   0.73979  0.73979  0.00000
E59   E   0.73979  0.81600  0.18400
E60   E   0.73979  0.81600  0.81600
E61   E   0.81600  0.18400  0.26021
E62   E   0.81600  0.18400  0.73979
E63   E   0.81600  0.26021  0.18400
E64   E   0.81600  0.26021  0.81600
E65   E   0.81600  0.73979  0.18400
E66   E   0.81600  0.73979  0.81600
E67   E   0.81600  0.81600  0.26021
E68   E   0.81600  0.81600  0.73979
E69   E   0.94611  0.32621  0.32621
E70   E   0.94611  0.32621  0.67379
E71   E   0.94611  0.67379  0.32621
E72   E   0.94611  0.67379  0.67379
loop_
