data_fva_I4/mmm  hall_number: 424, V_con: 4, EC_con: 4
_audit_creation_date              2025-03-05
_audit_creation_method            'MOFbuilder_1.0'
_symmetry_space_group_name_H-M    'P1'
_symmetry_Int_Tables_number       1
_symmetry_cell_setting            triclinic
loop_
_symmetry_equiv_pos_as_xyz
  x,y,z
_cell_length_a                    43.368399999999994
_cell_length_b                    43.368399999999994
_cell_length_c                    50.647000000000006
_cell_angle_alpha                 90.0
_cell_angle_beta                  90.0
_cell_angle_gamma                 90.0
loop_
_atom_site_label
_atom_site_type_symbol
_atom_site_fract_x
_atom_site_fract_y
_atom_site_fract_z
V1    V   0.11529  0.38471  0.00000
V2    V   0.11529  0.38471  0.50000
V3    V   0.11529  0.61529  0.00000
V4    V   0.11529  0.61529  0.50000
V5    V   0.38471  0.11529  0.00000
V6    V   0.38471  0.11529  0.50000
V7    V   0.38471  0.88471  0.00000
V8    V   0.38471  0.88471  0.50000
V9    V   0.61529  0.11529  0.00000
V10   V   0.61529  0.11529  0.50000
V11   V   0.61529  0.88471  0.00000
V12   V   0.61529  0.88471  0.50000
V13   V   0.88471  0.38471  0.00000
V14   V   0.88471  0.38471  0.50000
V15   V   0.88471  0.61529  0.00000
V16   V   0.88471  0.61529  0.50000
EC1    EC   0.11529  0.27834  0.17518
EC2    EC   0.11529  0.27834  0.82482
EC3    EC   0.11529  0.72166  0.17518
EC4    EC   0.11529  0.72166  0.82482
EC5    EC   0.22166  0.38471  0.32482
EC6    EC   0.22166  0.38471  0.67518
EC7    EC   0.22166  0.61529  0.32482
EC8    EC   0.22166  0.61529  0.67518
EC9    EC   0.27834  0.11529  0.17518
EC10   EC   0.27834  0.11529  0.82482
EC11   EC   0.27834  0.88471  0.17518
EC12   EC   0.27834  0.88471  0.82482
EC13   EC   0.38471  0.22166  0.32482
EC14   EC   0.38471  0.22166  0.67518
EC15   EC   0.38471  0.77834  0.32482
EC16   EC   0.38471  0.77834  0.67518
EC17   EC   0.61529  0.22166  0.32482
EC18   EC   0.61529  0.22166  0.67518
EC19   EC   0.61529  0.77834  0.32482
EC20   EC   0.61529  0.77834  0.67518
EC21   EC   0.72166  0.11529  0.17518
EC22   EC   0.72166  0.11529  0.82482
EC23   EC   0.72166  0.88471  0.17518
EC24   EC   0.72166  0.88471  0.82482
EC25   EC   0.77834  0.38471  0.32482
EC26   EC   0.77834  0.38471  0.67518
EC27   EC   0.77834  0.61529  0.32482
EC28   EC   0.77834  0.61529  0.67518
EC29   EC   0.88471  0.27834  0.17518
EC30   EC   0.88471  0.27834  0.82482
EC31   EC   0.88471  0.72166  0.17518
EC32   EC   0.88471  0.72166  0.82482
E1    E   0.00000  0.27834  0.17518
E2    E   0.00000  0.27834  0.82482
E3    E   0.00000  0.38471  0.00000
E4    E   0.00000  0.38471  0.50000
E5    E   0.00000  0.61529  0.00000
E6    E   0.00000  0.61529  0.50000
E7    E   0.00000  0.72166  0.17518
E8    E   0.00000  0.72166  0.82482
E9    E   0.11529  0.33152  0.08759
E10   E   0.11529  0.33152  0.91241
E11   E   0.11529  0.50000  0.00000
E12   E   0.11529  0.50000  0.50000
E13   E   0.11529  0.66848  0.08759
E14   E   0.11529  0.66848  0.91241
E15   E   0.16848  0.33152  0.25000
E16   E   0.16848  0.33152  0.75000
E17   E   0.16848  0.66848  0.25000
E18   E   0.16848  0.66848  0.75000
E19   E   0.16848  0.33152  0.25000
E20   E   0.16848  0.33152  0.75000
E21   E   0.16848  0.38471  0.41241
E22   E   0.16848  0.38471  0.58759
E23   E   0.16848  0.61529  0.41241
E24   E   0.16848  0.61529  0.58759
E25   E   0.16848  0.66848  0.25000
E26   E   0.16848  0.66848  0.75000
E27   E   0.19681  0.19681  0.17518
E28   E   0.19681  0.19681  0.82482
E29   E   0.19681  0.80319  0.17518
E30   E   0.19681  0.80319  0.82482
E31   E   0.22166  0.50000  0.32482
E32   E   0.22166  0.50000  0.67518
E33   E   0.27834  0.00000  0.17518
E34   E   0.27834  0.00000  0.82482
E35   E   0.30319  0.30319  0.32482
E36   E   0.30319  0.30319  0.67518
E37   E   0.30319  0.69681  0.32482
E38   E   0.30319  0.69681  0.67518
E39   E   0.33152  0.11529  0.08759
E40   E   0.33152  0.11529  0.91241
E41   E   0.33152  0.16848  0.25000
E42   E   0.33152  0.16848  0.75000
E43   E   0.33152  0.83152  0.25000
E44   E   0.33152  0.83152  0.75000
E45   E   0.33152  0.88471  0.08759
E46   E   0.33152  0.88471  0.91241
E47   E   0.33152  0.16848  0.25000
E48   E   0.33152  0.16848  0.75000
E49   E   0.33152  0.83152  0.25000
E50   E   0.33152  0.83152  0.75000
E51   E   0.38471  0.00000  0.00000
E52   E   0.38471  0.00000  0.50000
E53   E   0.38471  0.16848  0.41241
E54   E   0.38471  0.16848  0.58759
E55   E   0.38471  0.83152  0.41241
E56   E   0.38471  0.83152  0.58759
E57   E   0.50000  0.11529  0.00000
E58   E   0.50000  0.11529  0.50000
E59   E   0.50000  0.22166  0.32482
E60   E   0.50000  0.22166  0.67518
E61   E   0.50000  0.77834  0.32482
E62   E   0.50000  0.77834  0.67518
E63   E   0.50000  0.88471  0.00000
E64   E   0.50000  0.88471  0.50000
E65   E   0.61529  0.00000  0.00000
E66   E   0.61529  0.00000  0.50000
E67   E   0.61529  0.16848  0.41241
E68   E   0.61529  0.16848  0.58759
E69   E   0.61529  0.83152  0.41241
E70   E   0.61529  0.83152  0.58759
E71   E   0.66848  0.11529  0.08759
E72   E   0.66848  0.11529  0.91241
E73   E   0.66848  0.16848  0.25000
E74   E   0.66848  0.16848  0.75000
E75   E   0.66848  0.16848  0.25000
E76   E   0.66848  0.16848  0.75000
E77   E   0.66848  0.83152  0.25000
E78   E   0.66848  0.83152  0.75000
E79   E   0.66848  0.88471  0.08759
E80   E   0.66848  0.88471  0.91241
E81   E   0.69681  0.30319  0.32482
E82   E   0.69681  0.30319  0.67518
E83   E   0.69681  0.69681  0.32482
E84   E   0.69681  0.69681  0.67518
E85   E   0.72166  0.00000  0.17518
E86   E   0.72166  0.00000  0.82482
E87   E   0.77834  0.50000  0.32482
E88   E   0.77834  0.50000  0.67518
E89   E   0.80319  0.19681  0.17518
E90   E   0.80319  0.19681  0.82482
E91   E   0.80319  0.80319  0.17518
E92   E   0.80319  0.80319  0.82482
E93   E   0.83152  0.33152  0.25000
E94   E   0.83152  0.33152  0.75000
E95   E   0.83152  0.33152  0.25000
E96   E   0.83152  0.33152  0.75000
E97   E   0.83152  0.38471  0.41241
E98   E   0.83152  0.38471  0.58759
E99   E   0.83152  0.61529  0.41241
E100  E   0.83152  0.61529  0.58759
E101  E   0.83152  0.66848  0.25000
E102  E   0.83152  0.66848  0.75000
E103  E   0.88471  0.33152  0.08759
E104  E   0.88471  0.33152  0.91241
E105  E   0.88471  0.50000  0.00000
E106  E   0.88471  0.50000  0.50000
E107  E   0.88471  0.66848  0.08759
E108  E   0.88471  0.66848  0.91241
loop_
