data_fvc_P63/mmc  hall_number: 488, V_con: 4, EC_con: 4
_audit_creation_date              2025-03-05
_audit_creation_method            'MOFbuilder_1.0'
_symmetry_space_group_name_H-M    'P1'
_symmetry_Int_Tables_number       1
_symmetry_cell_setting            triclinic
loop_
_symmetry_equiv_pos_as_xyz
  x,y,z
_cell_length_a                    41.57339999999999
_cell_length_b                    41.57339999999999
_cell_length_c                    64.6396
_cell_angle_alpha                 90.0
_cell_angle_beta                  90.0
_cell_angle_gamma                 120.0
loop_
_atom_site_label
_atom_site_type_symbol
_atom_site_fract_x
_atom_site_fract_y
_atom_site_fract_z
V1    V   0.00000  0.24054  0.17265
V2    V   0.00000  0.24054  0.32735
V3    V   0.00000  0.24054  0.67265
V4    V   0.00000  0.24054  0.82735
V5    V   0.00000  0.75946  0.17265
V6    V   0.00000  0.75946  0.32735
V7    V   0.00000  0.75946  0.67265
V8    V   0.00000  0.75946  0.82735
V9    V   0.24054  0.00000  0.17265
V10   V   0.24054  0.00000  0.32735
V11   V   0.24054  0.00000  0.67265
V12   V   0.24054  0.00000  0.82735
V13   V   0.24054  0.24054  0.17265
V14   V   0.24054  0.24054  0.32735
V15   V   0.24054  0.24054  0.67265
V16   V   0.24054  0.24054  0.82735
V17   V   0.75946  0.00000  0.17265
V18   V   0.75946  0.00000  0.32735
V19   V   0.75946  0.00000  0.67265
V20   V   0.75946  0.00000  0.82735
V21   V   0.75946  0.75946  0.17265
V22   V   0.75946  0.75946  0.32735
V23   V   0.75946  0.75946  0.67265
V24   V   0.75946  0.75946  0.82735
EC1    EC   0.09279  0.42613  0.05755
EC2    EC   0.09279  0.42613  0.44245
EC3    EC   0.09279  0.66666  0.05755
EC4    EC   0.09279  0.66666  0.44245
EC5    EC   0.33334  0.42613  0.05755
EC6    EC   0.33334  0.42613  0.44245
EC7    EC   0.33334  0.90721  0.05755
EC8    EC   0.33334  0.90721  0.44245
EC9    EC   0.42613  0.09279  0.55755
EC10   EC   0.42613  0.09279  0.94245
EC11   EC   0.42613  0.33334  0.55755
EC12   EC   0.42613  0.33334  0.94245
EC13   EC   0.57387  0.66666  0.05755
EC14   EC   0.57387  0.66666  0.44245
EC15   EC   0.57387  0.90721  0.05755
EC16   EC   0.57387  0.90721  0.44245
EC17   EC   0.66666  0.09279  0.55755
EC18   EC   0.66666  0.09279  0.94245
EC19   EC   0.66666  0.57387  0.55755
EC20   EC   0.66666  0.57387  0.94245
EC21   EC   0.90721  0.33334  0.55755
EC22   EC   0.90721  0.33334  0.94245
EC23   EC   0.90721  0.57387  0.55755
EC24   EC   0.90721  0.57387  0.94245
E1    E   0.00000  0.24054  0.25000
E2    E   0.00000  0.24054  0.75000
E3    E   0.00000  0.37973  0.00000
E4    E   0.00000  0.37973  0.50000
E5    E   0.00000  0.62027  0.00000
E6    E   0.00000  0.62027  0.50000
E7    E   0.00000  0.75946  0.25000
E8    E   0.00000  0.75946  0.75000
E9    E   0.04640  0.33333  0.11510
E10   E   0.04640  0.33333  0.38490
E11   E   0.04640  0.71307  0.11510
E12   E   0.04640  0.71307  0.38490
E13   E   0.09279  0.54639  0.05755
E14   E   0.09279  0.54639  0.44245
E15   E   0.09279  0.54640  0.05755
E16   E   0.09279  0.54640  0.44245
E17   E   0.12027  0.24054  0.17265
E18   E   0.12027  0.24054  0.32735
E19   E   0.12027  0.24054  0.67265
E20   E   0.12027  0.24054  0.82735
E21   E   0.12027  0.87973  0.17265
E22   E   0.12027  0.87973  0.32735
E23   E   0.12027  0.87973  0.67265
E24   E   0.12027  0.87973  0.82735
E25   E   0.21306  0.42613  0.05755
E26   E   0.21306  0.42613  0.44245
E27   E   0.21306  0.78693  0.05755
E28   E   0.21306  0.78693  0.44245
E29   E   0.21307  0.42613  0.05755
E30   E   0.21307  0.42613  0.44245
E31   E   0.21307  0.78694  0.05755
E32   E   0.21307  0.78694  0.44245
E33   E   0.24054  0.00000  0.25000
E34   E   0.24054  0.00000  0.75000
E35   E   0.24054  0.12027  0.17265
E36   E   0.24054  0.12027  0.32735
E37   E   0.24054  0.12027  0.67265
E38   E   0.24054  0.12027  0.82735
E39   E   0.24054  0.24054  0.25000
E40   E   0.24054  0.24054  0.75000
E41   E   0.28693  0.33333  0.11510
E42   E   0.28693  0.33333  0.38490
E43   E   0.28693  0.95360  0.11510
E44   E   0.28693  0.95360  0.38490
E45   E   0.33333  0.04640  0.61510
E46   E   0.33333  0.04640  0.88490
E47   E   0.33333  0.28693  0.61510
E48   E   0.33333  0.28693  0.88490
E49   E   0.37973  0.00000  0.00000
E50   E   0.37973  0.00000  0.50000
E51   E   0.37973  0.37973  0.00000
E52   E   0.37973  0.37973  0.50000
E53   E   0.42613  0.21306  0.55755
E54   E   0.42613  0.21306  0.94245
E55   E   0.42613  0.21307  0.55755
E56   E   0.42613  0.21307  0.94245
E57   E   0.45360  0.54639  0.05755
E58   E   0.45360  0.54639  0.44245
E59   E   0.45360  0.90721  0.05755
E60   E   0.45360  0.90721  0.44245
E61   E   0.45361  0.54640  0.05755
E62   E   0.45361  0.54640  0.44245
E63   E   0.45361  0.90721  0.05755
E64   E   0.45361  0.90721  0.44245
E65   E   0.54639  0.09279  0.55755
E66   E   0.54639  0.09279  0.94245
E67   E   0.54639  0.45360  0.55755
E68   E   0.54639  0.45360  0.94245
E69   E   0.54640  0.09279  0.55755
E70   E   0.54640  0.09279  0.94245
E71   E   0.54640  0.45361  0.55755
E72   E   0.54640  0.45361  0.94245
E73   E   0.57387  0.78693  0.05755
E74   E   0.57387  0.78693  0.44245
E75   E   0.57387  0.78694  0.05755
E76   E   0.57387  0.78694  0.44245
E77   E   0.62027  0.00000  0.00000
E78   E   0.62027  0.00000  0.50000
E79   E   0.62027  0.62027  0.00000
E80   E   0.62027  0.62027  0.50000
E81   E   0.66667  0.71307  0.11510
E82   E   0.66667  0.71307  0.38490
E83   E   0.66667  0.95360  0.11510
E84   E   0.66667  0.95360  0.38490
E85   E   0.71307  0.04640  0.61510
E86   E   0.71307  0.04640  0.88490
E87   E   0.71307  0.66667  0.61510
E88   E   0.71307  0.66667  0.88490
E89   E   0.75946  0.00000  0.25000
E90   E   0.75946  0.00000  0.75000
E91   E   0.75946  0.75946  0.25000
E92   E   0.75946  0.75946  0.75000
E93   E   0.75946  0.87973  0.17265
E94   E   0.75946  0.87973  0.32735
E95   E   0.75946  0.87973  0.67265
E96   E   0.75946  0.87973  0.82735
E97   E   0.78693  0.21306  0.55755
E98   E   0.78693  0.21306  0.94245
E99   E   0.78693  0.57387  0.55755
E100  E   0.78693  0.57387  0.94245
E101  E   0.78694  0.21307  0.55755
E102  E   0.78694  0.21307  0.94245
E103  E   0.78694  0.57387  0.55755
E104  E   0.78694  0.57387  0.94245
E105  E   0.87973  0.12027  0.17265
E106  E   0.87973  0.12027  0.32735
E107  E   0.87973  0.12027  0.67265
E108  E   0.87973  0.12027  0.82735
E109  E   0.87973  0.75946  0.17265
E110  E   0.87973  0.75946  0.32735
E111  E   0.87973  0.75946  0.67265
E112  E   0.87973  0.75946  0.82735
E113  E   0.90721  0.45360  0.55755
E114  E   0.90721  0.45360  0.94245
E115  E   0.90721  0.45361  0.55755
E116  E   0.90721  0.45361  0.94245
E117  E   0.95360  0.28693  0.61510
E118  E   0.95360  0.28693  0.88490
E119  E   0.95360  0.66667  0.61510
E120  E   0.95360  0.66667  0.88490
loop_
