data_fve_P4/nbm:2  hall_number: 403, V_con: 4, EC_con: 4
_audit_creation_date              2025-03-05
_audit_creation_method            'MOFbuilder_1.0'
_symmetry_space_group_name_H-M    'P1'
_symmetry_Int_Tables_number       1
_symmetry_cell_setting            triclinic
loop_
_symmetry_equiv_pos_as_xyz
  x,y,z
_cell_length_a                    46.1382
_cell_length_b                    46.1382
_cell_length_c                    29.822899999999997
_cell_angle_alpha                 90.0
_cell_angle_beta                  90.0
_cell_angle_gamma                 90.0
loop_
_atom_site_label
_atom_site_type_symbol
_atom_site_fract_x
_atom_site_fract_y
_atom_site_fract_z
V1    V   0.00482  0.14844  0.05850
V2    V   0.00482  0.35156  0.94150
V3    V   0.14844  0.00482  0.94150
V4    V   0.14844  0.49518  0.05850
V5    V   0.35156  0.00482  0.05850
V6    V   0.35156  0.49518  0.94150
V7    V   0.49518  0.14844  0.94150
V8    V   0.49518  0.35156  0.05850
V9    V   0.50482  0.64844  0.94150
V10   V   0.50482  0.85156  0.05850
V11   V   0.64844  0.50482  0.05850
V12   V   0.64844  0.99518  0.94150
V13   V   0.85156  0.50482  0.94150
V14   V   0.85156  0.99518  0.05850
V15   V   0.99518  0.64844  0.05850
V16   V   0.99518  0.85156  0.94150
EC1    EC   0.12296  0.16427  0.33855
EC2    EC   0.12296  0.33573  0.66145
EC3    EC   0.16427  0.12296  0.66145
EC4    EC   0.16427  0.37704  0.33855
EC5    EC   0.33573  0.12296  0.33855
EC6    EC   0.33573  0.37704  0.66145
EC7    EC   0.37704  0.16427  0.66145
EC8    EC   0.37704  0.33573  0.33855
EC9    EC   0.62296  0.66427  0.66145
EC10   EC   0.62296  0.83573  0.33855
EC11   EC   0.66427  0.62296  0.33855
EC12   EC   0.66427  0.87704  0.66145
EC13   EC   0.83573  0.62296  0.66145
EC14   EC   0.83573  0.87704  0.33855
EC15   EC   0.87704  0.66427  0.33855
EC16   EC   0.87704  0.83573  0.66145
E1    E   0.00482  0.25000  0.00000
E2    E   0.06389  0.15636  0.19853
E3    E   0.06389  0.34364  0.80147
E4    E   0.07181  0.57181  0.05850
E5    E   0.07181  0.92819  0.94150
E6    E   0.07663  0.07663  0.00000
E7    E   0.07663  0.42337  0.00000
E8    E   0.14362  0.14362  0.50000
E9    E   0.14362  0.22934  0.66145
E10   E   0.14362  0.27066  0.33855
E11   E   0.14362  0.35638  0.50000
E12   E   0.15636  0.06389  0.80147
E13   E   0.15636  0.43611  0.19853
E14   E   0.22934  0.14362  0.33855
E15   E   0.22934  0.35638  0.66145
E16   E   0.25000  0.00482  0.00000
E17   E   0.25000  0.49518  0.00000
E18   E   0.27066  0.14362  0.66145
E19   E   0.27066  0.35638  0.33855
E20   E   0.34364  0.06389  0.19853
E21   E   0.34364  0.43611  0.80147
E22   E   0.35638  0.14362  0.50000
E23   E   0.35638  0.22934  0.33855
E24   E   0.35638  0.27066  0.66145
E25   E   0.35638  0.35638  0.50000
E26   E   0.42337  0.07663  0.00000
E27   E   0.42337  0.42337  0.00000
E28   E   0.42819  0.57181  0.94150
E29   E   0.42819  0.92819  0.05850
E30   E   0.43611  0.15636  0.80147
E31   E   0.43611  0.34364  0.19853
E32   E   0.49518  0.25000  0.00000
E33   E   0.50482  0.75000  0.00000
E34   E   0.56389  0.65636  0.80147
E35   E   0.56389  0.84364  0.19853
E36   E   0.57181  0.07181  0.94150
E37   E   0.57181  0.42819  0.05850
E38   E   0.57663  0.57663  0.00000
E39   E   0.57663  0.92337  0.00000
E40   E   0.64362  0.64362  0.50000
E41   E   0.64362  0.72934  0.33855
E42   E   0.64362  0.77066  0.66145
E43   E   0.64362  0.85638  0.50000
E44   E   0.65636  0.56389  0.19853
E45   E   0.65636  0.93611  0.80147
E46   E   0.72934  0.64362  0.66145
E47   E   0.72934  0.85638  0.33855
E48   E   0.75000  0.50482  0.00000
E49   E   0.75000  0.99518  0.00000
E50   E   0.77066  0.64362  0.33855
E51   E   0.77066  0.85638  0.66145
E52   E   0.84364  0.56389  0.80147
E53   E   0.84364  0.93611  0.19853
E54   E   0.85638  0.64362  0.50000
E55   E   0.85638  0.72934  0.66145
E56   E   0.85638  0.77066  0.33855
E57   E   0.85638  0.85638  0.50000
E58   E   0.92337  0.57663  0.00000
E59   E   0.92337  0.92337  0.00000
E60   E   0.92819  0.07181  0.05850
E61   E   0.92819  0.42819  0.94150
E62   E   0.93611  0.65636  0.19853
E63   E   0.93611  0.84364  0.80147
E64   E   0.99518  0.75000  0.00000
loop_
