data_fvf_Im-3m  hall_number: 529, V_con: 4, EC_con: 4
_audit_creation_date              2025-03-05
_audit_creation_method            'MOFbuilder_1.0'
_symmetry_space_group_name_H-M    'P1'
_symmetry_Int_Tables_number       1
_symmetry_cell_setting            triclinic
loop_
_symmetry_equiv_pos_as_xyz
  x,y,z
_cell_length_a                    54.4949
_cell_length_b                    54.4949
_cell_length_c                    54.4949
_cell_angle_alpha                 90.0
_cell_angle_beta                  90.0
_cell_angle_gamma                 90.0
loop_
_atom_site_label
_atom_site_type_symbol
_atom_site_fract_x
_atom_site_fract_y
_atom_site_fract_z
V1    V   0.09175  0.29588  0.29588
V2    V   0.09175  0.29588  0.70412
V3    V   0.09175  0.70412  0.29588
V4    V   0.09175  0.70412  0.70412
V5    V   0.20412  0.20412  0.40825
V6    V   0.20412  0.20412  0.59175
V7    V   0.20412  0.40825  0.20412
V8    V   0.20412  0.40825  0.79588
V9    V   0.20412  0.59175  0.20412
V10   V   0.20412  0.59175  0.79588
V11   V   0.20412  0.79588  0.40825
V12   V   0.20412  0.79588  0.59175
V13   V   0.29588  0.09175  0.29588
V14   V   0.29588  0.09175  0.70412
V15   V   0.29588  0.29588  0.09175
V16   V   0.29588  0.29588  0.90825
V17   V   0.29588  0.70412  0.09175
V18   V   0.29588  0.70412  0.90825
V19   V   0.29588  0.90825  0.29588
V20   V   0.29588  0.90825  0.70412
V21   V   0.40825  0.20412  0.20412
V22   V   0.40825  0.20412  0.79588
V23   V   0.40825  0.79588  0.20412
V24   V   0.40825  0.79588  0.79588
V25   V   0.59175  0.20412  0.20412
V26   V   0.59175  0.20412  0.79588
V27   V   0.59175  0.79588  0.20412
V28   V   0.59175  0.79588  0.79588
V29   V   0.70412  0.09175  0.29588
V30   V   0.70412  0.09175  0.70412
V31   V   0.70412  0.29588  0.09175
V32   V   0.70412  0.29588  0.90825
V33   V   0.70412  0.70412  0.09175
V34   V   0.70412  0.70412  0.90825
V35   V   0.70412  0.90825  0.29588
V36   V   0.70412  0.90825  0.70412
V37   V   0.79588  0.20412  0.40825
V38   V   0.79588  0.20412  0.59175
V39   V   0.79588  0.40825  0.20412
V40   V   0.79588  0.40825  0.79588
V41   V   0.79588  0.59175  0.20412
V42   V   0.79588  0.59175  0.79588
V43   V   0.79588  0.79588  0.40825
V44   V   0.79588  0.79588  0.59175
V45   V   0.90825  0.29588  0.29588
V46   V   0.90825  0.29588  0.70412
V47   V   0.90825  0.70412  0.29588
V48   V   0.90825  0.70412  0.70412
EC1    EC   0.00000  0.40825  0.40825
EC2    EC   0.00000  0.40825  0.59175
EC3    EC   0.00000  0.59175  0.40825
EC4    EC   0.00000  0.59175  0.59175
EC5    EC   0.09175  0.09175  0.50000
EC6    EC   0.09175  0.50000  0.09175
EC7    EC   0.09175  0.50000  0.90825
EC8    EC   0.09175  0.90825  0.50000
EC9    EC   0.40825  0.00000  0.40825
EC10   EC   0.40825  0.00000  0.59175
EC11   EC   0.40825  0.40825  0.00000
EC12   EC   0.40825  0.59175  0.00000
EC13   EC   0.50000  0.09175  0.09175
EC14   EC   0.50000  0.09175  0.90825
EC15   EC   0.50000  0.90825  0.09175
EC16   EC   0.50000  0.90825  0.90825
EC17   EC   0.59175  0.00000  0.40825
EC18   EC   0.59175  0.00000  0.59175
EC19   EC   0.59175  0.40825  0.00000
EC20   EC   0.59175  0.59175  0.00000
EC21   EC   0.90825  0.09175  0.50000
EC22   EC   0.90825  0.50000  0.09175
EC23   EC   0.90825  0.50000  0.90825
EC24   EC   0.90825  0.90825  0.50000
E1    E   0.00000  0.09175  0.50000
E2    E   0.00000  0.29588  0.29588
E3    E   0.00000  0.29588  0.70412
E4    E   0.00000  0.40825  0.50000
E5    E   0.00000  0.50000  0.09175
E6    E   0.00000  0.50000  0.40825
E7    E   0.00000  0.50000  0.59175
E8    E   0.00000  0.50000  0.90825
E9    E   0.00000  0.59175  0.50000
E10   E   0.00000  0.70412  0.29588
E11   E   0.00000  0.70412  0.70412
E12   E   0.00000  0.90825  0.50000
E13   E   0.04588  0.35206  0.35206
E14   E   0.04588  0.35206  0.64794
E15   E   0.04588  0.64794  0.35206
E16   E   0.04588  0.64794  0.64794
E17   E   0.09175  0.00000  0.50000
E18   E   0.09175  0.50000  0.00000
E19   E   0.14794  0.25000  0.35206
E20   E   0.14794  0.25000  0.64794
E21   E   0.14794  0.35206  0.25000
E22   E   0.14794  0.35206  0.75000
E23   E   0.14794  0.64794  0.25000
E24   E   0.14794  0.64794  0.75000
E25   E   0.14794  0.75000  0.35206
E26   E   0.14794  0.75000  0.64794
E27   E   0.14794  0.14794  0.45412
E28   E   0.14794  0.14794  0.54588
E29   E   0.14794  0.25000  0.35206
E30   E   0.14794  0.25000  0.64794
E31   E   0.14794  0.35206  0.25000
E32   E   0.14794  0.35206  0.75000
E33   E   0.14794  0.45412  0.14794
E34   E   0.14794  0.45412  0.85206
E35   E   0.14794  0.54588  0.14794
E36   E   0.14794  0.54588  0.85206
E37   E   0.14794  0.64794  0.25000
E38   E   0.14794  0.64794  0.75000
E39   E   0.14794  0.75000  0.35206
E40   E   0.14794  0.75000  0.64794
E41   E   0.14794  0.85206  0.45412
E42   E   0.14794  0.85206  0.54588
E43   E   0.20412  0.20412  0.50000
E44   E   0.20412  0.50000  0.20412
E45   E   0.20412  0.50000  0.79588
E46   E   0.20412  0.79588  0.50000
E47   E   0.25000  0.14794  0.35206
E48   E   0.25000  0.14794  0.64794
E49   E   0.25000  0.14794  0.35206
E50   E   0.25000  0.14794  0.64794
E51   E   0.25000  0.35206  0.14794
E52   E   0.25000  0.35206  0.85206
E53   E   0.25000  0.35206  0.14794
E54   E   0.25000  0.35206  0.85206
E55   E   0.25000  0.64794  0.14794
E56   E   0.25000  0.64794  0.14794
E57   E   0.25000  0.64794  0.85206
E58   E   0.25000  0.85206  0.35206
E59   E   0.25000  0.85206  0.35206
E60   E   0.25000  0.85206  0.64794
E61   E   0.29588  0.00000  0.29588
E62   E   0.29588  0.00000  0.70412
E63   E   0.29588  0.29588  0.00000
E64   E   0.29588  0.70412  0.00000
E65   E   0.35206  0.04588  0.35206
E66   E   0.35206  0.04588  0.64794
E67   E   0.35206  0.14794  0.25000
E68   E   0.35206  0.14794  0.75000
E69   E   0.35206  0.25000  0.14794
E70   E   0.35206  0.25000  0.85206
E71   E   0.35206  0.35206  0.04588
E72   E   0.35206  0.35206  0.95412
E73   E   0.35206  0.64794  0.04588
E74   E   0.35206  0.64794  0.95412
E75   E   0.35206  0.75000  0.14794
E76   E   0.35206  0.75000  0.85206
E77   E   0.35206  0.85206  0.25000
E78   E   0.35206  0.85206  0.75000
E79   E   0.35206  0.95412  0.35206
E80   E   0.35206  0.95412  0.64794
E81   E   0.35206  0.14794  0.25000
E82   E   0.35206  0.14794  0.75000
E83   E   0.35206  0.25000  0.14794
E84   E   0.35206  0.25000  0.85206
E85   E   0.35206  0.75000  0.14794
E86   E   0.35206  0.75000  0.85206
E87   E   0.35206  0.85206  0.25000
E88   E   0.35206  0.85206  0.75000
E89   E   0.40825  0.00000  0.50000
E90   E   0.40825  0.50000  0.00000
E91   E   0.45412  0.14794  0.14794
E92   E   0.45412  0.14794  0.85206
E93   E   0.45412  0.85206  0.14794
E94   E   0.45412  0.85206  0.85206
E95   E   0.50000  0.00000  0.09175
E96   E   0.50000  0.00000  0.40825
E97   E   0.50000  0.00000  0.59175
E98   E   0.50000  0.00000  0.90825
E99   E   0.50000  0.09175  0.00000
E100  E   0.50000  0.20412  0.20412
E101  E   0.50000  0.20412  0.79588
E102  E   0.50000  0.40825  0.00000
E103  E   0.50000  0.59175  0.00000
E104  E   0.50000  0.79588  0.20412
E105  E   0.50000  0.79588  0.79588
E106  E   0.50000  0.90825  0.00000
E107  E   0.54588  0.14794  0.14794
E108  E   0.54588  0.14794  0.85206
E109  E   0.54588  0.85206  0.14794
E110  E   0.54588  0.85206  0.85206
E111  E   0.59175  0.00000  0.50000
E112  E   0.59175  0.50000  0.00000
E113  E   0.64794  0.04588  0.35206
E114  E   0.64794  0.04588  0.64794
E115  E   0.64794  0.14794  0.25000
E116  E   0.64794  0.14794  0.75000
E117  E   0.64794  0.14794  0.25000
E118  E   0.64794  0.14794  0.75000
E119  E   0.64794  0.25000  0.14794
E120  E   0.64794  0.25000  0.14794
E121  E   0.64794  0.25000  0.85206
E122  E   0.64794  0.35206  0.04588
E123  E   0.64794  0.35206  0.95412
E124  E   0.64794  0.64794  0.04588
E125  E   0.64794  0.64794  0.95412
E126  E   0.64794  0.75000  0.14794
E127  E   0.64794  0.75000  0.14794
E128  E   0.64794  0.75000  0.85206
E129  E   0.64794  0.85206  0.25000
E130  E   0.64794  0.85206  0.75000
E131  E   0.64794  0.95412  0.35206
E132  E   0.64794  0.95412  0.64794
E133  E   0.70412  0.00000  0.29588
E134  E   0.70412  0.00000  0.70412
E135  E   0.70412  0.29588  0.00000
E136  E   0.70412  0.70412  0.00000
E137  E   0.75000  0.14794  0.35206
E138  E   0.75000  0.14794  0.64794
E139  E   0.75000  0.14794  0.35206
E140  E   0.75000  0.14794  0.64794
E141  E   0.75000  0.35206  0.14794
E142  E   0.75000  0.35206  0.85206
E143  E   0.75000  0.35206  0.14794
E144  E   0.75000  0.35206  0.85206
E145  E   0.75000  0.64794  0.14794
E146  E   0.75000  0.64794  0.14794
E147  E   0.75000  0.64794  0.85206
E148  E   0.75000  0.85206  0.35206
E149  E   0.75000  0.85206  0.35206
E150  E   0.75000  0.85206  0.64794
E151  E   0.79588  0.20412  0.50000
E152  E   0.79588  0.50000  0.20412
E153  E   0.79588  0.50000  0.79588
E154  E   0.79588  0.79588  0.50000
E155  E   0.85206  0.14794  0.45412
E156  E   0.85206  0.14794  0.54588
E157  E   0.85206  0.25000  0.35206
E158  E   0.85206  0.25000  0.35206
E159  E   0.85206  0.25000  0.64794
E160  E   0.85206  0.35206  0.25000
E161  E   0.85206  0.35206  0.75000
E162  E   0.85206  0.35206  0.25000
E163  E   0.85206  0.35206  0.75000
E164  E   0.85206  0.45412  0.14794
E165  E   0.85206  0.45412  0.85206
E166  E   0.85206  0.54588  0.14794
E167  E   0.85206  0.54588  0.85206
E168  E   0.85206  0.64794  0.25000
E169  E   0.85206  0.64794  0.75000
E170  E   0.85206  0.75000  0.35206
E171  E   0.85206  0.75000  0.35206
E172  E   0.85206  0.75000  0.64794
E173  E   0.85206  0.85206  0.45412
E174  E   0.85206  0.85206  0.54588
E175  E   0.90825  0.00000  0.50000
E176  E   0.90825  0.50000  0.00000
E177  E   0.95412  0.35206  0.35206
E178  E   0.95412  0.35206  0.64794
E179  E   0.95412  0.64794  0.35206
E180  E   0.95412  0.64794  0.64794
loop_
