data_fvk_I-4m2  hall_number: 396, V_con: 4, EC_con: 4
_audit_creation_date              2025-03-05
_audit_creation_method            'MOFbuilder_1.0'
_symmetry_space_group_name_H-M    'P1'
_symmetry_Int_Tables_number       1
_symmetry_cell_setting            triclinic
loop_
_symmetry_equiv_pos_as_xyz
  x,y,z
_cell_length_a                    41.520599999999995
_cell_length_b                    41.520599999999995
_cell_length_c                    25.186799999999998
_cell_angle_alpha                 90.0
_cell_angle_beta                  90.0
_cell_angle_gamma                 90.0
loop_
_atom_site_label
_atom_site_type_symbol
_atom_site_fract_x
_atom_site_fract_y
_atom_site_fract_z
V1    V   0.12042  0.37958  0.75000
V2    V   0.12042  0.62042  0.75000
V3    V   0.12042  0.37958  0.75000
V4    V   0.12042  0.62042  0.75000
V5    V   0.37958  0.12042  0.25000
V6    V   0.37958  0.87958  0.25000
V7    V   0.37958  0.12042  0.25000
V8    V   0.37958  0.87958  0.25000
V9    V   0.62042  0.12042  0.25000
V10   V   0.62042  0.12042  0.25000
V11   V   0.62042  0.87958  0.25000
V12   V   0.87958  0.37958  0.75000
V13   V   0.87958  0.37958  0.75000
V14   V   0.87958  0.62042  0.75000
EC1    EC   0.12042  0.26703  0.39898
EC2    EC   0.12042  0.73297  0.39898
EC3    EC   0.23297  0.37958  0.10102
EC4    EC   0.23297  0.62042  0.10102
EC5    EC   0.26703  0.12042  0.60102
EC6    EC   0.26703  0.87958  0.60102
EC7    EC   0.37958  0.23297  0.89898
EC8    EC   0.37958  0.76703  0.89898
EC9    EC   0.62042  0.23297  0.89898
EC10   EC   0.62042  0.76703  0.89898
EC11   EC   0.73297  0.12042  0.60102
EC12   EC   0.73297  0.87958  0.60102
EC13   EC   0.76703  0.37958  0.10102
EC14   EC   0.76703  0.62042  0.10102
EC15   EC   0.87958  0.26703  0.39898
EC16   EC   0.87958  0.73297  0.39898
E1    E   0.00000  0.26703  0.39898
E2    E   0.00000  0.37958  0.75000
E3    E   0.00000  0.62042  0.75000
E4    E   0.00000  0.73297  0.39898
E5    E   0.12042  0.32330  0.57449
E6    E   0.12042  0.50000  0.75000
E7    E   0.12042  0.67670  0.57449
E8    E   0.17670  0.32330  0.25000
E9    E   0.17670  0.37958  0.92551
E10   E   0.17670  0.62042  0.92551
E11   E   0.17670  0.67670  0.25000
E12   E   0.17670  0.32330  0.25000
E13   E   0.17670  0.67670  0.25000
E14   E   0.19373  0.19373  0.50000
E15   E   0.19373  0.80627  0.50000
E16   E   0.23297  0.50000  0.10102
E17   E   0.26703  0.00000  0.60102
E18   E   0.30627  0.30627  0.00000
E19   E   0.30627  0.69373  0.00000
E20   E   0.32330  0.17670  0.75000
E21   E   0.32330  0.82330  0.75000
E22   E   0.32330  0.12042  0.42551
E23   E   0.32330  0.17670  0.75000
E24   E   0.32330  0.82330  0.75000
E25   E   0.32330  0.87958  0.42551
E26   E   0.37958  0.00000  0.25000
E27   E   0.37958  0.17670  0.07449
E28   E   0.37958  0.82330  0.07449
E29   E   0.50000  0.12042  0.25000
E30   E   0.50000  0.23297  0.89898
E31   E   0.50000  0.76703  0.89898
E32   E   0.50000  0.87958  0.25000
E33   E   0.62042  0.00000  0.25000
E34   E   0.62042  0.17670  0.07449
E35   E   0.62042  0.82330  0.07449
E36   E   0.67670  0.12042  0.42551
E37   E   0.67670  0.17670  0.75000
E38   E   0.67670  0.82330  0.75000
E39   E   0.67670  0.87958  0.42551
E40   E   0.67670  0.17670  0.75000
E41   E   0.67670  0.82330  0.75000
E42   E   0.69373  0.30627  0.00000
E43   E   0.69373  0.69373  0.00000
E44   E   0.73297  0.00000  0.60102
E45   E   0.76703  0.50000  0.10102
E46   E   0.80627  0.19373  0.50000
E47   E   0.80627  0.80627  0.50000
E48   E   0.82330  0.32330  0.25000
E49   E   0.82330  0.67670  0.25000
E50   E   0.82330  0.32330  0.25000
E51   E   0.82330  0.37958  0.92551
E52   E   0.82330  0.62042  0.92551
E53   E   0.82330  0.67670  0.25000
E54   E   0.87958  0.32330  0.57449
E55   E   0.87958  0.50000  0.75000
E56   E   0.87958  0.67670  0.57449
loop_
