data_fvm_P63/mcm  hall_number: 487, V_con: 4, EC_con: 4
_audit_creation_date              2025-03-05
_audit_creation_method            'MOFbuilder_1.0'
_symmetry_space_group_name_H-M    'P1'
_symmetry_Int_Tables_number       1
_symmetry_cell_setting            triclinic
loop_
_symmetry_equiv_pos_as_xyz
  x,y,z
_cell_length_a                    44.8473
_cell_length_b                    44.8473
_cell_length_c                    45.564099999999996
_cell_angle_alpha                 90.0
_cell_angle_beta                  90.0
_cell_angle_gamma                 120.0
loop_
_atom_site_label
_atom_site_type_symbol
_atom_site_fract_x
_atom_site_fract_y
_atom_site_fract_z
V1    V   0.20559  0.53695  0.75000
V2    V   0.20559  0.66864  0.25000
V3    V   0.33136  0.53695  0.25000
V4    V   0.33136  0.79441  0.75000
V5    V   0.46305  0.66864  0.75000
V6    V   0.46305  0.79441  0.25000
V7    V   0.53695  0.20559  0.75000
V8    V   0.53695  0.33136  0.25000
V9    V   0.66864  0.20559  0.25000
V10   V   0.66864  0.46305  0.75000
V11   V   0.79441  0.33136  0.75000
V12   V   0.79441  0.46305  0.25000
EC1    EC   0.12874  0.46207  0.54363
EC2    EC   0.12874  0.46207  0.95637
EC3    EC   0.12874  0.66667  0.04363
EC4    EC   0.12874  0.66667  0.45637
EC5    EC   0.33333  0.46207  0.04363
EC6    EC   0.33333  0.46207  0.45637
EC7    EC   0.33333  0.87126  0.54363
EC8    EC   0.33333  0.87126  0.95637
EC9    EC   0.46207  0.12874  0.54363
EC10   EC   0.46207  0.12874  0.95637
EC11   EC   0.46207  0.33333  0.04363
EC12   EC   0.46207  0.33333  0.45637
EC13   EC   0.53793  0.66667  0.54363
EC14   EC   0.53793  0.66667  0.95637
EC15   EC   0.53793  0.87126  0.04363
EC16   EC   0.53793  0.87126  0.45637
EC17   EC   0.66667  0.12874  0.04363
EC18   EC   0.66667  0.12874  0.45637
EC19   EC   0.66667  0.53793  0.54363
EC20   EC   0.66667  0.53793  0.95637
EC21   EC   0.87126  0.33333  0.54363
EC22   EC   0.87126  0.33333  0.95637
EC23   EC   0.87126  0.53793  0.04363
EC24   EC   0.87126  0.53793  0.45637
E1    E   0.00000  0.39770  0.54363
E2    E   0.00000  0.39770  0.95637
E3    E   0.00000  0.60230  0.04363
E4    E   0.00000  0.60230  0.45637
E5    E   0.12874  0.56437  0.00000
E6    E   0.12874  0.56437  0.50000
E7    E   0.16716  0.49951  0.64682
E8    E   0.16716  0.49951  0.85318
E9    E   0.16716  0.66765  0.14682
E10   E   0.16716  0.66765  0.35318
E11   E   0.23103  0.46207  0.00000
E12   E   0.23103  0.46207  0.50000
E13   E   0.23103  0.76896  0.00000
E14   E   0.23103  0.76896  0.50000
E15   E   0.23104  0.46207  0.00000
E16   E   0.23104  0.46207  0.50000
E17   E   0.23104  0.76897  0.00000
E18   E   0.23104  0.76897  0.50000
E19   E   0.26848  0.60280  0.25000
E20   E   0.26848  0.66568  0.75000
E21   E   0.33235  0.49951  0.14682
E22   E   0.33235  0.49951  0.35318
E23   E   0.33235  0.83284  0.64682
E24   E   0.33235  0.83284  0.85318
E25   E   0.33432  0.60280  0.75000
E26   E   0.33432  0.73152  0.25000
E27   E   0.39720  0.66568  0.25000
E28   E   0.39720  0.73152  0.75000
E29   E   0.39770  0.00000  0.54363
E30   E   0.39770  0.00000  0.95637
E31   E   0.39770  0.39770  0.04363
E32   E   0.39770  0.39770  0.45637
E33   E   0.43563  0.56437  0.00000
E34   E   0.43563  0.56437  0.50000
E35   E   0.43563  0.87126  0.00000
E36   E   0.43563  0.87126  0.50000
E37   E   0.43563  0.56437  0.00000
E38   E   0.43563  0.56437  0.50000
E39   E   0.43563  0.87126  0.00000
E40   E   0.43563  0.87126  0.50000
E41   E   0.46207  0.23103  0.00000
E42   E   0.46207  0.23103  0.50000
E43   E   0.46207  0.23104  0.00000
E44   E   0.46207  0.23104  0.50000
E45   E   0.49951  0.16716  0.64682
E46   E   0.49951  0.16716  0.85318
E47   E   0.49951  0.33235  0.14682
E48   E   0.49951  0.33235  0.35318
E49   E   0.50049  0.66765  0.64682
E50   E   0.50049  0.66765  0.85318
E51   E   0.50049  0.83284  0.14682
E52   E   0.50049  0.83284  0.35318
E53   E   0.53793  0.76896  0.00000
E54   E   0.53793  0.76896  0.50000
E55   E   0.53793  0.76897  0.00000
E56   E   0.53793  0.76897  0.50000
E57   E   0.56437  0.12874  0.00000
E58   E   0.56437  0.12874  0.50000
E59   E   0.56437  0.43563  0.00000
E60   E   0.56437  0.43563  0.50000
E61   E   0.56437  0.43563  0.00000
E62   E   0.56437  0.43563  0.50000
E63   E   0.60230  0.00000  0.04363
E64   E   0.60230  0.00000  0.45637
E65   E   0.60230  0.60230  0.54363
E66   E   0.60230  0.60230  0.95637
E67   E   0.60280  0.26848  0.25000
E68   E   0.60280  0.33432  0.75000
E69   E   0.66568  0.26848  0.75000
E70   E   0.66568  0.39720  0.25000
E71   E   0.66765  0.16716  0.14682
E72   E   0.66765  0.16716  0.35318
E73   E   0.66765  0.50049  0.64682
E74   E   0.66765  0.50049  0.85318
E75   E   0.73152  0.33432  0.25000
E76   E   0.73152  0.39720  0.75000
E77   E   0.76896  0.23103  0.00000
E78   E   0.76896  0.23103  0.50000
E79   E   0.76896  0.53793  0.00000
E80   E   0.76896  0.53793  0.50000
E81   E   0.76897  0.23104  0.00000
E82   E   0.76897  0.23104  0.50000
E83   E   0.76897  0.53793  0.00000
E84   E   0.76897  0.53793  0.50000
E85   E   0.83284  0.33235  0.64682
E86   E   0.83284  0.33235  0.85318
E87   E   0.83284  0.50049  0.14682
E88   E   0.83284  0.50049  0.35318
E89   E   0.87126  0.43563  0.00000
E90   E   0.87126  0.43563  0.50000
E91   E   0.87126  0.43563  0.00000
E92   E   0.87126  0.43563  0.50000
loop_
