data_fvt_I4/mcm  hall_number: 425, V_con: 4, EC_con: 4
_audit_creation_date              2025-03-05
_audit_creation_method            'MOFbuilder_1.0'
_symmetry_space_group_name_H-M    'P1'
_symmetry_Int_Tables_number       1
_symmetry_cell_setting            triclinic
loop_
_symmetry_equiv_pos_as_xyz
  x,y,z
_cell_length_a                    44.6244
_cell_length_b                    44.6244
_cell_length_c                    44.537000000000006
_cell_angle_alpha                 90.0
_cell_angle_beta                  90.0
_cell_angle_gamma                 90.0
loop_
_atom_site_label
_atom_site_type_symbol
_atom_site_fract_x
_atom_site_fract_y
_atom_site_fract_z
V1    V   0.05951  0.14686  0.50000
V2    V   0.05951  0.85314  0.00000
V3    V   0.14686  0.05951  0.00000
V4    V   0.14686  0.94049  0.50000
V5    V   0.35314  0.44049  0.50000
V6    V   0.35314  0.55951  0.00000
V7    V   0.44049  0.35314  0.00000
V8    V   0.44049  0.64686  0.50000
V9    V   0.55951  0.35314  0.50000
V10   V   0.55951  0.64686  0.00000
V11   V   0.64686  0.44049  0.00000
V12   V   0.64686  0.55951  0.50000
V13   V   0.85314  0.05951  0.50000
V14   V   0.85314  0.94049  0.00000
V15   V   0.94049  0.14686  0.00000
V16   V   0.94049  0.85314  0.50000
EC1    EC   0.10004  0.24151  0.30057
EC2    EC   0.10004  0.24151  0.69943
EC3    EC   0.10004  0.75849  0.19943
EC4    EC   0.10004  0.75849  0.80057
EC5    EC   0.24151  0.10004  0.19943
EC6    EC   0.24151  0.10004  0.80057
EC7    EC   0.24151  0.89996  0.30057
EC8    EC   0.24151  0.89996  0.69943
EC9    EC   0.25849  0.39996  0.30057
EC10   EC   0.25849  0.39996  0.69943
EC11   EC   0.25849  0.60004  0.19943
EC12   EC   0.25849  0.60004  0.80057
EC13   EC   0.39996  0.25849  0.19943
EC14   EC   0.39996  0.25849  0.80057
EC15   EC   0.39996  0.74151  0.30057
EC16   EC   0.39996  0.74151  0.69943
EC17   EC   0.60004  0.25849  0.30057
EC18   EC   0.60004  0.25849  0.69943
EC19   EC   0.60004  0.74151  0.19943
EC20   EC   0.60004  0.74151  0.80057
EC21   EC   0.74151  0.39996  0.19943
EC22   EC   0.74151  0.39996  0.80057
EC23   EC   0.74151  0.60004  0.30057
EC24   EC   0.74151  0.60004  0.69943
EC25   EC   0.75849  0.10004  0.30057
EC26   EC   0.75849  0.10004  0.69943
EC27   EC   0.75849  0.89996  0.19943
EC28   EC   0.75849  0.89996  0.80057
EC29   EC   0.89996  0.24151  0.19943
EC30   EC   0.89996  0.24151  0.80057
EC31   EC   0.89996  0.75849  0.30057
EC32   EC   0.89996  0.75849  0.69943
E1    E   0.00000  0.24151  0.25000
E2    E   0.00000  0.24151  0.75000
E3    E   0.00000  0.75849  0.25000
E4    E   0.00000  0.75849  0.75000
E5    E   0.04367  0.10318  0.00000
E6    E   0.04367  0.89682  0.50000
E7    E   0.07977  0.19418  0.40029
E8    E   0.07977  0.19418  0.59971
E9    E   0.07977  0.80582  0.09971
E10   E   0.07977  0.80582  0.90029
E11   E   0.10318  0.04367  0.50000
E12   E   0.10318  0.95633  0.00000
E13   E   0.17077  0.17077  0.25000
E14   E   0.17077  0.17077  0.75000
E15   E   0.17077  0.82923  0.25000
E16   E   0.17077  0.82923  0.75000
E17   E   0.17926  0.32074  0.30057
E18   E   0.17926  0.32074  0.69943
E19   E   0.17926  0.67926  0.19943
E20   E   0.17926  0.67926  0.80057
E21   E   0.17926  0.32074  0.30057
E22   E   0.17926  0.32074  0.69943
E23   E   0.17926  0.67926  0.19943
E24   E   0.17926  0.67926  0.80057
E25   E   0.19418  0.07977  0.09971
E26   E   0.19418  0.07977  0.90029
E27   E   0.19418  0.92023  0.40029
E28   E   0.19418  0.92023  0.59971
E29   E   0.24151  0.00000  0.25000
E30   E   0.24151  0.00000  0.75000
E31   E   0.25849  0.50000  0.25000
E32   E   0.25849  0.50000  0.75000
E33   E   0.30582  0.42023  0.40029
E34   E   0.30582  0.42023  0.59971
E35   E   0.30582  0.57977  0.09971
E36   E   0.30582  0.57977  0.90029
E37   E   0.32074  0.17926  0.19943
E38   E   0.32074  0.17926  0.80057
E39   E   0.32074  0.17926  0.19943
E40   E   0.32074  0.17926  0.80057
E41   E   0.32074  0.82074  0.30057
E42   E   0.32074  0.82074  0.69943
E43   E   0.32923  0.32923  0.25000
E44   E   0.32923  0.32923  0.75000
E45   E   0.32923  0.67077  0.25000
E46   E   0.32923  0.67077  0.75000
E47   E   0.39682  0.45633  0.00000
E48   E   0.39682  0.54367  0.50000
E49   E   0.42023  0.30582  0.09971
E50   E   0.42023  0.30582  0.90029
E51   E   0.42023  0.69418  0.40029
E52   E   0.42023  0.69418  0.59971
E53   E   0.45633  0.39682  0.50000
E54   E   0.45633  0.60318  0.00000
E55   E   0.50000  0.25849  0.25000
E56   E   0.50000  0.25849  0.75000
E57   E   0.50000  0.74151  0.25000
E58   E   0.50000  0.74151  0.75000
E59   E   0.54367  0.39682  0.00000
E60   E   0.54367  0.60318  0.50000
E61   E   0.57977  0.30582  0.40029
E62   E   0.57977  0.30582  0.59971
E63   E   0.57977  0.69418  0.09971
E64   E   0.57977  0.69418  0.90029
E65   E   0.60318  0.45633  0.50000
E66   E   0.60318  0.54367  0.00000
E67   E   0.67077  0.32923  0.25000
E68   E   0.67077  0.32923  0.75000
E69   E   0.67077  0.67077  0.25000
E70   E   0.67077  0.67077  0.75000
E71   E   0.67926  0.17926  0.30057
E72   E   0.67926  0.17926  0.69943
E73   E   0.67926  0.17926  0.30057
E74   E   0.67926  0.17926  0.69943
E75   E   0.67926  0.82074  0.19943
E76   E   0.67926  0.82074  0.80057
E77   E   0.69418  0.42023  0.09971
E78   E   0.69418  0.42023  0.90029
E79   E   0.69418  0.57977  0.40029
E80   E   0.69418  0.57977  0.59971
E81   E   0.74151  0.50000  0.25000
E82   E   0.74151  0.50000  0.75000
E83   E   0.75849  0.00000  0.25000
E84   E   0.75849  0.00000  0.75000
E85   E   0.80582  0.07977  0.40029
E86   E   0.80582  0.07977  0.59971
E87   E   0.80582  0.92023  0.09971
E88   E   0.80582  0.92023  0.90029
E89   E   0.82074  0.32074  0.19943
E90   E   0.82074  0.32074  0.80057
E91   E   0.82074  0.67926  0.30057
E92   E   0.82074  0.67926  0.69943
E93   E   0.82923  0.17077  0.25000
E94   E   0.82923  0.17077  0.75000
E95   E   0.82923  0.82923  0.25000
E96   E   0.82923  0.82923  0.75000
E97   E   0.89682  0.04367  0.00000
E98   E   0.89682  0.95633  0.50000
E99   E   0.92023  0.19418  0.09971
E100  E   0.92023  0.19418  0.90029
E101  E   0.92023  0.80582  0.40029
E102  E   0.92023  0.80582  0.59971
E103  E   0.95633  0.10318  0.50000
E104  E   0.95633  0.89682  0.00000
loop_
