data_fvu_P4/nbm:2  hall_number: 403, V_con: 4, EC_con: 4
_audit_creation_date              2025-03-05
_audit_creation_method            'MOFbuilder_1.0'
_symmetry_space_group_name_H-M    'P1'
_symmetry_Int_Tables_number       1
_symmetry_cell_setting            triclinic
loop_
_symmetry_equiv_pos_as_xyz
  x,y,z
_cell_length_a                    43.8671
_cell_length_b                    43.8671
_cell_length_c                    21.560299999999998
_cell_angle_alpha                 90.0
_cell_angle_beta                  90.0
_cell_angle_gamma                 90.0
loop_
_atom_site_label
_atom_site_type_symbol
_atom_site_fract_x
_atom_site_fract_y
_atom_site_fract_z
V1    V   0.13602  0.13602  0.00000
V2    V   0.13602  0.36398  0.00000
V3    V   0.36398  0.13602  0.00000
V4    V   0.36398  0.36398  0.00000
V5    V   0.63602  0.63602  0.00000
V6    V   0.63602  0.86398  0.00000
V7    V   0.86398  0.63602  0.00000
V8    V   0.86398  0.86398  0.00000
EC1    EC   0.01043  0.15077  0.61409
EC2    EC   0.01043  0.34923  0.38591
EC3    EC   0.15077  0.01043  0.38591
EC4    EC   0.15077  0.48957  0.61409
EC5    EC   0.34923  0.01043  0.61409
EC6    EC   0.34923  0.48957  0.38591
EC7    EC   0.48957  0.15077  0.38591
EC8    EC   0.48957  0.34923  0.61409
EC9    EC   0.51043  0.65077  0.38591
EC10   EC   0.51043  0.84923  0.61409
EC11   EC   0.65077  0.51043  0.61409
EC12   EC   0.65077  0.98957  0.38591
EC13   EC   0.84923  0.51043  0.38591
EC14   EC   0.84923  0.98957  0.61409
EC15   EC   0.98957  0.65077  0.61409
EC16   EC   0.98957  0.84923  0.38591
E1    E   0.01043  0.25000  0.50000
E2    E   0.07017  0.57017  0.61409
E3    E   0.07017  0.92983  0.38591
E4    E   0.07322  0.14339  0.80704
E5    E   0.07322  0.35661  0.19296
E6    E   0.08060  0.08060  0.50000
E7    E   0.08060  0.41940  0.50000
E8    E   0.13602  0.25000  0.00000
E9    E   0.14339  0.07322  0.19296
E10   E   0.14339  0.42678  0.80704
E11   E   0.25000  0.01043  0.50000
E12   E   0.25000  0.13602  0.00000
E13   E   0.25000  0.36398  0.00000
E14   E   0.25000  0.48957  0.50000
E15   E   0.35661  0.07322  0.80704
E16   E   0.35661  0.42678  0.19296
E17   E   0.36398  0.25000  0.00000
E18   E   0.41940  0.08060  0.50000
E19   E   0.41940  0.41940  0.50000
E20   E   0.42678  0.14339  0.19296
E21   E   0.42678  0.35661  0.80704
E22   E   0.42983  0.57017  0.38591
E23   E   0.42983  0.92983  0.61409
E24   E   0.48957  0.25000  0.50000
E25   E   0.51043  0.75000  0.50000
E26   E   0.57017  0.07017  0.38591
E27   E   0.57017  0.42983  0.61409
E28   E   0.57322  0.64339  0.19296
E29   E   0.57322  0.85661  0.80704
E30   E   0.58060  0.58060  0.50000
E31   E   0.58060  0.91940  0.50000
E32   E   0.63602  0.75000  0.00000
E33   E   0.64339  0.57322  0.80704
E34   E   0.64339  0.92678  0.19296
E35   E   0.75000  0.51043  0.50000
E36   E   0.75000  0.63602  0.00000
E37   E   0.75000  0.86398  0.00000
E38   E   0.75000  0.98957  0.50000
E39   E   0.85661  0.57322  0.19296
E40   E   0.85661  0.92678  0.80704
E41   E   0.86398  0.75000  0.00000
E42   E   0.91940  0.58060  0.50000
E43   E   0.91940  0.91940  0.50000
E44   E   0.92678  0.64339  0.80704
E45   E   0.92678  0.85661  0.19296
E46   E   0.92983  0.07017  0.61409
E47   E   0.92983  0.42983  0.38591
E48   E   0.98957  0.75000  0.50000
loop_
