data_fvx_Im-3m  hall_number: 529, V_con: 4, EC_con: 4
_audit_creation_date              2025-03-05
_audit_creation_method            'MOFbuilder_1.0'
_symmetry_space_group_name_H-M    'P1'
_symmetry_Int_Tables_number       1
_symmetry_cell_setting            triclinic
loop_
_symmetry_equiv_pos_as_xyz
  x,y,z
_cell_length_a                    48.376400000000004
_cell_length_b                    48.376400000000004
_cell_length_c                    48.376400000000004
_cell_angle_alpha                 90.0
_cell_angle_beta                  90.0
_cell_angle_gamma                 90.0
loop_
_atom_site_label
_atom_site_type_symbol
_atom_site_fract_x
_atom_site_fract_y
_atom_site_fract_z
V1    V   0.10336  0.25048  0.25048
V2    V   0.10336  0.25048  0.74952
V3    V   0.10336  0.74952  0.25048
V4    V   0.10336  0.74952  0.74952
V5    V   0.24952  0.24952  0.39664
V6    V   0.24952  0.24952  0.60336
V7    V   0.24952  0.39664  0.24952
V8    V   0.24952  0.39664  0.75048
V9    V   0.24952  0.60336  0.24952
V10   V   0.24952  0.60336  0.75048
V11   V   0.24952  0.75048  0.39664
V12   V   0.24952  0.75048  0.60336
V13   V   0.25048  0.10336  0.25048
V14   V   0.25048  0.10336  0.74952
V15   V   0.25048  0.25048  0.10336
V16   V   0.25048  0.25048  0.89664
V17   V   0.25048  0.74952  0.10336
V18   V   0.25048  0.74952  0.89664
V19   V   0.25048  0.89664  0.25048
V20   V   0.25048  0.89664  0.74952
V21   V   0.39664  0.24952  0.24952
V22   V   0.39664  0.24952  0.75048
V23   V   0.39664  0.75048  0.24952
V24   V   0.39664  0.75048  0.75048
V25   V   0.60336  0.24952  0.24952
V26   V   0.60336  0.24952  0.75048
V27   V   0.60336  0.75048  0.24952
V28   V   0.60336  0.75048  0.75048
V29   V   0.74952  0.10336  0.25048
V30   V   0.74952  0.10336  0.74952
V31   V   0.74952  0.25048  0.10336
V32   V   0.74952  0.25048  0.89664
V33   V   0.74952  0.74952  0.10336
V34   V   0.74952  0.74952  0.89664
V35   V   0.74952  0.89664  0.25048
V36   V   0.74952  0.89664  0.74952
V37   V   0.75048  0.24952  0.39664
V38   V   0.75048  0.24952  0.60336
V39   V   0.75048  0.39664  0.24952
V40   V   0.75048  0.39664  0.75048
V41   V   0.75048  0.60336  0.24952
V42   V   0.75048  0.60336  0.75048
V43   V   0.75048  0.75048  0.39664
V44   V   0.75048  0.75048  0.60336
V45   V   0.89664  0.25048  0.25048
V46   V   0.89664  0.25048  0.74952
V47   V   0.89664  0.74952  0.25048
V48   V   0.89664  0.74952  0.74952
EC1    EC   0.10336  0.10336  0.39664
EC2    EC   0.10336  0.10336  0.60336
EC3    EC   0.10336  0.39664  0.10336
EC4    EC   0.10336  0.39664  0.89664
EC5    EC   0.10336  0.60336  0.10336
EC6    EC   0.10336  0.60336  0.89664
EC7    EC   0.10336  0.89664  0.39664
EC8    EC   0.10336  0.89664  0.60336
EC9    EC   0.10336  0.39664  0.39664
EC10   EC   0.10336  0.39664  0.60336
EC11   EC   0.10336  0.60336  0.39664
EC12   EC   0.10336  0.60336  0.60336
EC13   EC   0.39664  0.10336  0.10336
EC14   EC   0.39664  0.10336  0.89664
EC15   EC   0.39664  0.10336  0.39664
EC16   EC   0.39664  0.10336  0.60336
EC17   EC   0.39664  0.39664  0.10336
EC18   EC   0.39664  0.39664  0.89664
EC19   EC   0.39664  0.60336  0.10336
EC20   EC   0.39664  0.60336  0.89664
EC21   EC   0.39664  0.89664  0.10336
EC22   EC   0.39664  0.89664  0.39664
EC23   EC   0.39664  0.89664  0.60336
EC24   EC   0.39664  0.89664  0.89664
EC25   EC   0.60336  0.10336  0.10336
EC26   EC   0.60336  0.10336  0.89664
EC27   EC   0.60336  0.10336  0.39664
EC28   EC   0.60336  0.10336  0.60336
EC29   EC   0.60336  0.39664  0.10336
EC30   EC   0.60336  0.39664  0.89664
EC31   EC   0.60336  0.60336  0.10336
EC32   EC   0.60336  0.60336  0.89664
EC33   EC   0.60336  0.89664  0.10336
EC34   EC   0.60336  0.89664  0.39664
EC35   EC   0.60336  0.89664  0.60336
EC36   EC   0.60336  0.89664  0.89664
EC37   EC   0.89664  0.10336  0.39664
EC38   EC   0.89664  0.10336  0.60336
EC39   EC   0.89664  0.39664  0.10336
EC40   EC   0.89664  0.39664  0.39664
EC41   EC   0.89664  0.39664  0.60336
EC42   EC   0.89664  0.39664  0.89664
EC43   EC   0.89664  0.60336  0.10336
EC44   EC   0.89664  0.60336  0.39664
EC45   EC   0.89664  0.60336  0.60336
EC46   EC   0.89664  0.60336  0.89664
EC47   EC   0.89664  0.89664  0.39664
EC48   EC   0.89664  0.89664  0.60336
E1    E   0.00000  0.10336  0.39664
E2    E   0.00000  0.10336  0.60336
E3    E   0.00000  0.25048  0.25048
E4    E   0.00000  0.25048  0.74952
E5    E   0.00000  0.39664  0.10336
E6    E   0.00000  0.39664  0.39664
E7    E   0.00000  0.39664  0.60336
E8    E   0.00000  0.39664  0.89664
E9    E   0.00000  0.60336  0.10336
E10   E   0.00000  0.60336  0.39664
E11   E   0.00000  0.60336  0.60336
E12   E   0.00000  0.60336  0.89664
E13   E   0.00000  0.74952  0.25048
E14   E   0.00000  0.74952  0.74952
E15   E   0.00000  0.89664  0.39664
E16   E   0.00000  0.89664  0.60336
E17   E   0.10336  0.00000  0.39664
E18   E   0.10336  0.00000  0.60336
E19   E   0.10336  0.10336  0.50000
E20   E   0.10336  0.32356  0.32356
E21   E   0.10336  0.32356  0.67644
E22   E   0.10336  0.39664  0.00000
E23   E   0.10336  0.50000  0.10336
E24   E   0.10336  0.50000  0.89664
E25   E   0.10336  0.60336  0.00000
E26   E   0.10336  0.67644  0.32356
E27   E   0.10336  0.67644  0.67644
E28   E   0.10336  0.89664  0.50000
E29   E   0.10336  0.39664  0.50000
E30   E   0.10336  0.50000  0.39664
E31   E   0.10336  0.50000  0.60336
E32   E   0.10336  0.60336  0.50000
E33   E   0.17644  0.17644  0.39664
E34   E   0.17644  0.17644  0.60336
E35   E   0.17644  0.25000  0.32356
E36   E   0.17644  0.25000  0.67644
E37   E   0.17644  0.32356  0.25000
E38   E   0.17644  0.32356  0.75000
E39   E   0.17644  0.39664  0.17644
E40   E   0.17644  0.39664  0.82356
E41   E   0.17644  0.60336  0.17644
E42   E   0.17644  0.60336  0.82356
E43   E   0.17644  0.67644  0.25000
E44   E   0.17644  0.67644  0.75000
E45   E   0.17644  0.75000  0.32356
E46   E   0.17644  0.75000  0.67644
E47   E   0.17644  0.82356  0.39664
E48   E   0.17644  0.82356  0.60336
E49   E   0.17644  0.25000  0.32356
E50   E   0.17644  0.25000  0.67644
E51   E   0.17644  0.32356  0.25000
E52   E   0.17644  0.32356  0.75000
E53   E   0.17644  0.67644  0.25000
E54   E   0.17644  0.67644  0.75000
E55   E   0.17644  0.75000  0.32356
E56   E   0.17644  0.75000  0.67644
E57   E   0.24952  0.24952  0.50000
E58   E   0.24952  0.50000  0.24952
E59   E   0.24952  0.50000  0.75048
E60   E   0.24952  0.75048  0.50000
E61   E   0.25000  0.17644  0.32356
E62   E   0.25000  0.17644  0.67644
E63   E   0.25000  0.17644  0.32356
E64   E   0.25000  0.17644  0.67644
E65   E   0.25000  0.32356  0.17644
E66   E   0.25000  0.32356  0.82356
E67   E   0.25000  0.32356  0.17644
E68   E   0.25000  0.32356  0.82356
E69   E   0.25000  0.67644  0.17644
E70   E   0.25000  0.67644  0.82356
E71   E   0.25000  0.67644  0.17644
E72   E   0.25000  0.67644  0.82356
E73   E   0.25000  0.82356  0.32356
E74   E   0.25000  0.82356  0.67644
E75   E   0.25000  0.82356  0.32356
E76   E   0.25000  0.82356  0.67644
E77   E   0.25048  0.00000  0.25048
E78   E   0.25048  0.00000  0.74952
E79   E   0.25048  0.25048  0.00000
E80   E   0.25048  0.74952  0.00000
E81   E   0.32356  0.17644  0.25000
E82   E   0.32356  0.17644  0.75000
E83   E   0.32356  0.25000  0.17644
E84   E   0.32356  0.25000  0.82356
E85   E   0.32356  0.75000  0.17644
E86   E   0.32356  0.75000  0.82356
E87   E   0.32356  0.82356  0.25000
E88   E   0.32356  0.82356  0.75000
E89   E   0.32356  0.10336  0.32356
E90   E   0.32356  0.10336  0.67644
E91   E   0.32356  0.17644  0.25000
E92   E   0.32356  0.17644  0.75000
E93   E   0.32356  0.25000  0.17644
E94   E   0.32356  0.25000  0.82356
E95   E   0.32356  0.32356  0.10336
E96   E   0.32356  0.32356  0.89664
E97   E   0.32356  0.67644  0.10336
E98   E   0.32356  0.67644  0.89664
E99   E   0.32356  0.75000  0.17644
E100  E   0.32356  0.75000  0.82356
E101  E   0.32356  0.82356  0.25000
E102  E   0.32356  0.82356  0.75000
E103  E   0.32356  0.89664  0.32356
E104  E   0.32356  0.89664  0.67644
E105  E   0.39664  0.00000  0.10336
E106  E   0.39664  0.00000  0.39664
E107  E   0.39664  0.00000  0.60336
E108  E   0.39664  0.00000  0.89664
E109  E   0.39664  0.10336  0.00000
E110  E   0.39664  0.10336  0.50000
E111  E   0.39664  0.17644  0.17644
E112  E   0.39664  0.17644  0.82356
E113  E   0.39664  0.39664  0.00000
E114  E   0.39664  0.50000  0.10336
E115  E   0.39664  0.50000  0.89664
E116  E   0.39664  0.60336  0.00000
E117  E   0.39664  0.82356  0.17644
E118  E   0.39664  0.82356  0.82356
E119  E   0.39664  0.89664  0.00000
E120  E   0.39664  0.89664  0.50000
E121  E   0.50000  0.10336  0.10336
E122  E   0.50000  0.10336  0.89664
E123  E   0.50000  0.10336  0.39664
E124  E   0.50000  0.10336  0.60336
E125  E   0.50000  0.24952  0.24952
E126  E   0.50000  0.24952  0.75048
E127  E   0.50000  0.39664  0.10336
E128  E   0.50000  0.39664  0.89664
E129  E   0.50000  0.60336  0.10336
E130  E   0.50000  0.60336  0.89664
E131  E   0.50000  0.75048  0.24952
E132  E   0.50000  0.75048  0.75048
E133  E   0.50000  0.89664  0.10336
E134  E   0.50000  0.89664  0.39664
E135  E   0.50000  0.89664  0.60336
E136  E   0.50000  0.89664  0.89664
E137  E   0.60336  0.00000  0.10336
E138  E   0.60336  0.00000  0.39664
E139  E   0.60336  0.00000  0.60336
E140  E   0.60336  0.00000  0.89664
E141  E   0.60336  0.10336  0.00000
E142  E   0.60336  0.10336  0.50000
E143  E   0.60336  0.17644  0.17644
E144  E   0.60336  0.17644  0.82356
E145  E   0.60336  0.39664  0.00000
E146  E   0.60336  0.50000  0.10336
E147  E   0.60336  0.50000  0.89664
E148  E   0.60336  0.60336  0.00000
E149  E   0.60336  0.82356  0.17644
E150  E   0.60336  0.82356  0.82356
E151  E   0.60336  0.89664  0.00000
E152  E   0.60336  0.89664  0.50000
E153  E   0.67644  0.10336  0.32356
E154  E   0.67644  0.10336  0.67644
E155  E   0.67644  0.17644  0.25000
E156  E   0.67644  0.17644  0.75000
E157  E   0.67644  0.25000  0.17644
E158  E   0.67644  0.25000  0.82356
E159  E   0.67644  0.32356  0.10336
E160  E   0.67644  0.32356  0.89664
E161  E   0.67644  0.67644  0.10336
E162  E   0.67644  0.67644  0.89664
E163  E   0.67644  0.75000  0.17644
E164  E   0.67644  0.75000  0.82356
E165  E   0.67644  0.82356  0.25000
E166  E   0.67644  0.82356  0.75000
E167  E   0.67644  0.89664  0.32356
E168  E   0.67644  0.89664  0.67644
E169  E   0.67644  0.17644  0.25000
E170  E   0.67644  0.17644  0.75000
E171  E   0.67644  0.25000  0.17644
E172  E   0.67644  0.25000  0.82356
E173  E   0.67644  0.75000  0.17644
E174  E   0.67644  0.75000  0.82356
E175  E   0.67644  0.82356  0.25000
E176  E   0.67644  0.82356  0.75000
E177  E   0.74952  0.00000  0.25048
E178  E   0.74952  0.00000  0.74952
E179  E   0.74952  0.25048  0.00000
E180  E   0.74952  0.74952  0.00000
E181  E   0.75000  0.17644  0.32356
E182  E   0.75000  0.17644  0.67644
E183  E   0.75000  0.17644  0.32356
E184  E   0.75000  0.17644  0.67644
E185  E   0.75000  0.32356  0.17644
E186  E   0.75000  0.32356  0.82356
E187  E   0.75000  0.32356  0.17644
E188  E   0.75000  0.32356  0.82356
E189  E   0.75000  0.67644  0.17644
E190  E   0.75000  0.67644  0.82356
E191  E   0.75000  0.67644  0.17644
E192  E   0.75000  0.67644  0.82356
E193  E   0.75000  0.82356  0.32356
E194  E   0.75000  0.82356  0.67644
E195  E   0.75000  0.82356  0.32356
E196  E   0.75000  0.82356  0.67644
E197  E   0.75048  0.24952  0.50000
E198  E   0.75048  0.50000  0.24952
E199  E   0.75048  0.50000  0.75048
E200  E   0.75048  0.75048  0.50000
E201  E   0.82356  0.25000  0.32356
E202  E   0.82356  0.25000  0.67644
E203  E   0.82356  0.32356  0.25000
E204  E   0.82356  0.32356  0.75000
E205  E   0.82356  0.67644  0.25000
E206  E   0.82356  0.67644  0.75000
E207  E   0.82356  0.75000  0.32356
E208  E   0.82356  0.75000  0.67644
E209  E   0.82356  0.17644  0.39664
E210  E   0.82356  0.17644  0.60336
E211  E   0.82356  0.25000  0.32356
E212  E   0.82356  0.25000  0.67644
E213  E   0.82356  0.32356  0.25000
E214  E   0.82356  0.32356  0.75000
E215  E   0.82356  0.39664  0.17644
E216  E   0.82356  0.39664  0.82356
E217  E   0.82356  0.60336  0.17644
E218  E   0.82356  0.60336  0.82356
E219  E   0.82356  0.67644  0.25000
E220  E   0.82356  0.67644  0.75000
E221  E   0.82356  0.75000  0.32356
E222  E   0.82356  0.75000  0.67644
E223  E   0.82356  0.82356  0.39664
E224  E   0.82356  0.82356  0.60336
E225  E   0.89664  0.00000  0.39664
E226  E   0.89664  0.00000  0.60336
E227  E   0.89664  0.10336  0.50000
E228  E   0.89664  0.32356  0.32356
E229  E   0.89664  0.32356  0.67644
E230  E   0.89664  0.39664  0.00000
E231  E   0.89664  0.39664  0.50000
E232  E   0.89664  0.50000  0.10336
E233  E   0.89664  0.50000  0.39664
E234  E   0.89664  0.50000  0.60336
E235  E   0.89664  0.50000  0.89664
E236  E   0.89664  0.60336  0.00000
E237  E   0.89664  0.60336  0.50000
E238  E   0.89664  0.67644  0.32356
E239  E   0.89664  0.67644  0.67644
E240  E   0.89664  0.89664  0.50000
loop_
