data_fwz_P6/mmm  hall_number: 485, V_con: 4, EC_con: 4
_audit_creation_date              2025-03-05
_audit_creation_method            'MOFbuilder_1.0'
_symmetry_space_group_name_H-M    'P1'
_symmetry_Int_Tables_number       1
_symmetry_cell_setting            triclinic
loop_
_symmetry_equiv_pos_as_xyz
  x,y,z
_cell_length_a                    60.055699999999995
_cell_length_b                    60.055699999999995
_cell_length_c                    29.944000000000003
_cell_angle_alpha                 90.0
_cell_angle_beta                  90.0
_cell_angle_gamma                 120.0
loop_
_atom_site_label
_atom_site_type_symbol
_atom_site_fract_x
_atom_site_fract_y
_atom_site_fract_z
V1    V   0.00000  0.41674  0.33302
V2    V   0.00000  0.41674  0.66698
V3    V   0.00000  0.58326  0.33302
V4    V   0.00000  0.58326  0.66698
V5    V   0.41674  0.00000  0.33302
V6    V   0.41674  0.00000  0.66698
V7    V   0.41674  0.41674  0.33302
V8    V   0.41674  0.41674  0.66698
V9    V   0.58326  0.00000  0.33302
V10   V   0.58326  0.00000  0.66698
V11   V   0.58326  0.58326  0.33302
V12   V   0.58326  0.58326  0.66698
EC1    EC   0.16682  0.50015  0.16698
EC2    EC   0.16682  0.50015  0.83302
EC3    EC   0.16682  0.66667  0.16698
EC4    EC   0.16682  0.66667  0.83302
EC5    EC   0.33333  0.50015  0.16698
EC6    EC   0.33333  0.50015  0.83302
EC7    EC   0.33333  0.83318  0.16698
EC8    EC   0.33333  0.83318  0.83302
EC9    EC   0.49985  0.66667  0.16698
EC10   EC   0.49985  0.66667  0.83302
EC11   EC   0.49985  0.83318  0.16698
EC12   EC   0.49985  0.83318  0.83302
EC13   EC   0.50015  0.16682  0.16698
EC14   EC   0.50015  0.16682  0.83302
EC15   EC   0.50015  0.33333  0.16698
EC16   EC   0.50015  0.33333  0.83302
EC17   EC   0.66667  0.16682  0.16698
EC18   EC   0.66667  0.16682  0.83302
EC19   EC   0.66667  0.49985  0.16698
EC20   EC   0.66667  0.49985  0.83302
EC21   EC   0.83318  0.33333  0.16698
EC22   EC   0.83318  0.33333  0.83302
EC23   EC   0.83318  0.49985  0.16698
EC24   EC   0.83318  0.49985  0.83302
E1    E   0.00000  0.41674  0.50000
E2    E   0.00000  0.50000  0.33302
E3    E   0.00000  0.50000  0.66698
E4    E   0.00000  0.58326  0.50000
E5    E   0.08341  0.45845  0.25000
E6    E   0.08341  0.45845  0.75000
E7    E   0.08341  0.62496  0.25000
E8    E   0.08341  0.62496  0.75000
E9    E   0.16682  0.50015  0.00000
E10   E   0.16682  0.58341  0.16698
E11   E   0.16682  0.58341  0.83302
E12   E   0.16682  0.66667  0.00000
E13   E   0.25007  0.50015  0.16698
E14   E   0.25007  0.50015  0.83302
E15   E   0.25007  0.74992  0.16698
E16   E   0.25007  0.74992  0.83302
E17   E   0.25008  0.50015  0.16698
E18   E   0.25008  0.50015  0.83302
E19   E   0.25008  0.74993  0.16698
E20   E   0.25008  0.74993  0.83302
E21   E   0.33333  0.50015  0.00000
E22   E   0.33333  0.83318  0.00000
E23   E   0.37504  0.45845  0.25000
E24   E   0.37504  0.45845  0.75000
E25   E   0.37504  0.91659  0.25000
E26   E   0.37504  0.91659  0.75000
E27   E   0.41659  0.58341  0.16698
E28   E   0.41659  0.58341  0.83302
E29   E   0.41659  0.83318  0.16698
E30   E   0.41659  0.83318  0.83302
E31   E   0.41674  0.00000  0.50000
E32   E   0.41674  0.41674  0.50000
E33   E   0.45845  0.08341  0.25000
E34   E   0.45845  0.08341  0.75000
E35   E   0.45845  0.37504  0.25000
E36   E   0.45845  0.37504  0.75000
E37   E   0.49985  0.66667  0.00000
E38   E   0.49985  0.74992  0.16698
E39   E   0.49985  0.74992  0.83302
E40   E   0.49985  0.74993  0.16698
E41   E   0.49985  0.74993  0.83302
E42   E   0.49985  0.83318  0.00000
E43   E   0.50000  0.00000  0.33302
E44   E   0.50000  0.00000  0.66698
E45   E   0.50000  0.50000  0.33302
E46   E   0.50000  0.50000  0.66698
E47   E   0.50015  0.16682  0.00000
E48   E   0.50015  0.25007  0.16698
E49   E   0.50015  0.25007  0.83302
E50   E   0.50015  0.25008  0.16698
E51   E   0.50015  0.25008  0.83302
E52   E   0.50015  0.33333  0.00000
E53   E   0.54155  0.62496  0.25000
E54   E   0.54155  0.62496  0.75000
E55   E   0.54155  0.91659  0.25000
E56   E   0.54155  0.91659  0.75000
E57   E   0.58326  0.00000  0.50000
E58   E   0.58326  0.58326  0.50000
E59   E   0.58341  0.16682  0.16698
E60   E   0.58341  0.16682  0.83302
E61   E   0.58341  0.41659  0.16698
E62   E   0.58341  0.41659  0.83302
E63   E   0.62496  0.08341  0.25000
E64   E   0.62496  0.08341  0.75000
E65   E   0.62496  0.54155  0.25000
E66   E   0.62496  0.54155  0.75000
E67   E   0.66667  0.16682  0.00000
E68   E   0.66667  0.49985  0.00000
E69   E   0.74992  0.25007  0.16698
E70   E   0.74992  0.25007  0.83302
E71   E   0.74992  0.49985  0.16698
E72   E   0.74992  0.49985  0.83302
E73   E   0.74993  0.25008  0.16698
E74   E   0.74993  0.25008  0.83302
E75   E   0.74993  0.49985  0.16698
E76   E   0.74993  0.49985  0.83302
E77   E   0.83318  0.33333  0.00000
E78   E   0.83318  0.41659  0.16698
E79   E   0.83318  0.41659  0.83302
E80   E   0.83318  0.49985  0.00000
E81   E   0.91659  0.37504  0.25000
E82   E   0.91659  0.37504  0.75000
E83   E   0.91659  0.54155  0.25000
E84   E   0.91659  0.54155  0.75000
loop_
