data_gar-a_Ia-3d  hall_number: 530, V_con: 5, EC_con: 4
_audit_creation_date              2025-03-05
_audit_creation_method            'MOFbuilder_1.0'
_symmetry_space_group_name_H-M    'P1'
_symmetry_Int_Tables_number       1
_symmetry_cell_setting            triclinic
loop_
_symmetry_equiv_pos_as_xyz
  x,y,z
_cell_length_a                    80.7236
_cell_length_b                    80.7236
_cell_length_c                    80.7236
_cell_angle_alpha                 90.0
_cell_angle_beta                  90.0
_cell_angle_gamma                 90.0
loop_
_atom_site_label
_atom_site_type_symbol
_atom_site_fract_x
_atom_site_fract_y
_atom_site_fract_z
V1    V   0.01467  0.01776  0.58451
V2    V   0.01467  0.48224  0.08451
V3    V   0.01467  0.51776  0.41549
V4    V   0.01467  0.98224  0.91549
V5    V   0.01776  0.08451  0.98533
V6    V   0.01776  0.41549  0.48533
V7    V   0.01776  0.58451  0.01467
V8    V   0.01776  0.91549  0.51467
V9    V   0.08451  0.01467  0.48224
V10   V   0.08451  0.48533  0.98224
V11   V   0.08451  0.51467  0.51776
V12   V   0.08451  0.98533  0.01776
V13   V   0.16549  0.23224  0.26467
V14   V   0.16549  0.26776  0.76467
V15   V   0.16549  0.73224  0.73533
V16   V   0.16549  0.76776  0.23533
V17   V   0.23224  0.23533  0.66549
V18   V   0.23224  0.26467  0.16549
V19   V   0.23224  0.73533  0.33451
V20   V   0.23224  0.76467  0.83451
V21   V   0.23533  0.16549  0.76776
V22   V   0.23533  0.33451  0.26776
V23   V   0.23533  0.66549  0.23224
V24   V   0.23533  0.83451  0.73224
V25   V   0.26467  0.16549  0.23224
V26   V   0.26467  0.33451  0.73224
V27   V   0.26467  0.66549  0.76776
V28   V   0.26467  0.83451  0.26776
V29   V   0.26776  0.23533  0.33451
V30   V   0.26776  0.26467  0.83451
V31   V   0.26776  0.73533  0.66549
V32   V   0.26776  0.76467  0.16549
V33   V   0.33451  0.23224  0.73533
V34   V   0.33451  0.26776  0.23533
V35   V   0.33451  0.73224  0.26467
V36   V   0.33451  0.76776  0.76467
V37   V   0.41549  0.01467  0.51776
V38   V   0.41549  0.48533  0.01776
V39   V   0.41549  0.51467  0.48224
V40   V   0.41549  0.98533  0.98224
V41   V   0.48224  0.08451  0.01467
V42   V   0.48224  0.41549  0.51467
V43   V   0.48224  0.58451  0.98533
V44   V   0.48224  0.91549  0.48533
V45   V   0.48533  0.01776  0.41549
V46   V   0.48533  0.48224  0.91549
V47   V   0.48533  0.51776  0.58451
V48   V   0.48533  0.98224  0.08451
V49   V   0.51467  0.01776  0.91549
V50   V   0.51467  0.48224  0.41549
V51   V   0.51467  0.51776  0.08451
V52   V   0.51467  0.98224  0.58451
V53   V   0.51776  0.08451  0.51467
V54   V   0.51776  0.41549  0.01467
V55   V   0.51776  0.58451  0.48533
V56   V   0.51776  0.91549  0.98533
V57   V   0.58451  0.01467  0.01776
V58   V   0.58451  0.48533  0.51776
V59   V   0.58451  0.51467  0.98224
V60   V   0.58451  0.98533  0.48224
V61   V   0.66549  0.23224  0.23533
V62   V   0.66549  0.26776  0.73533
V63   V   0.66549  0.73224  0.76467
V64   V   0.66549  0.76776  0.26467
V65   V   0.73224  0.23533  0.83451
V66   V   0.73224  0.26467  0.33451
V67   V   0.73224  0.73533  0.16549
V68   V   0.73224  0.76467  0.66549
V69   V   0.73533  0.16549  0.73224
V70   V   0.73533  0.33451  0.23224
V71   V   0.73533  0.66549  0.26776
V72   V   0.73533  0.83451  0.76776
V73   V   0.76467  0.16549  0.26776
V74   V   0.76467  0.33451  0.76776
V75   V   0.76467  0.66549  0.73224
V76   V   0.76467  0.83451  0.23224
V77   V   0.76776  0.23533  0.16549
V78   V   0.76776  0.26467  0.66549
V79   V   0.76776  0.73533  0.83451
V80   V   0.76776  0.76467  0.33451
V81   V   0.83451  0.23224  0.76467
V82   V   0.83451  0.26776  0.26467
V83   V   0.83451  0.73224  0.23533
V84   V   0.83451  0.76776  0.73533
V85   V   0.91549  0.01467  0.98224
V86   V   0.91549  0.48533  0.48224
V87   V   0.91549  0.51467  0.01776
V88   V   0.91549  0.98533  0.51776
V89   V   0.98224  0.08451  0.48533
V90   V   0.98224  0.41549  0.98533
V91   V   0.98224  0.58451  0.51467
V92   V   0.98224  0.91549  0.01467
V93   V   0.98533  0.01776  0.08451
V94   V   0.98533  0.48224  0.58451
V95   V   0.98533  0.51776  0.91549
V96   V   0.98533  0.98224  0.41549
EC1    EC   0.00695  0.18845  0.91880
EC2    EC   0.00695  0.31155  0.41880
EC3    EC   0.00695  0.68845  0.08120
EC4    EC   0.00695  0.81155  0.58120
EC5    EC   0.06155  0.24305  0.33120
EC6    EC   0.06155  0.25695  0.83120
EC7    EC   0.06155  0.74305  0.66880
EC8    EC   0.06155  0.75695  0.16880
EC9    EC   0.08120  0.00695  0.68845
EC10   EC   0.08120  0.49305  0.18845
EC11   EC   0.08120  0.50695  0.31155
EC12   EC   0.08120  0.99305  0.81155
EC13   EC   0.16880  0.06155  0.75695
EC14   EC   0.16880  0.43845  0.25695
EC15   EC   0.16880  0.56155  0.24305
EC16   EC   0.16880  0.93845  0.74305
EC17   EC   0.18845  0.08120  0.49305
EC18   EC   0.18845  0.41880  0.99305
EC19   EC   0.18845  0.58120  0.50695
EC20   EC   0.18845  0.91880  0.00695
EC21   EC   0.24305  0.16880  0.56155
EC22   EC   0.24305  0.33120  0.06155
EC23   EC   0.24305  0.66880  0.43845
EC24   EC   0.24305  0.83120  0.93845
EC25   EC   0.25695  0.16880  0.43845
EC26   EC   0.25695  0.33120  0.93845
EC27   EC   0.25695  0.66880  0.56155
EC28   EC   0.25695  0.83120  0.06155
EC29   EC   0.31155  0.08120  0.50695
EC30   EC   0.31155  0.41880  0.00695
EC31   EC   0.31155  0.58120  0.49305
EC32   EC   0.31155  0.91880  0.99305
EC33   EC   0.33120  0.06155  0.24305
EC34   EC   0.33120  0.43845  0.74305
EC35   EC   0.33120  0.56155  0.75695
EC36   EC   0.33120  0.93845  0.25695
EC37   EC   0.41880  0.00695  0.31155
EC38   EC   0.41880  0.49305  0.81155
EC39   EC   0.41880  0.50695  0.68845
EC40   EC   0.41880  0.99305  0.18845
EC41   EC   0.43845  0.24305  0.66880
EC42   EC   0.43845  0.25695  0.16880
EC43   EC   0.43845  0.74305  0.33120
EC44   EC   0.43845  0.75695  0.83120
EC45   EC   0.49305  0.18845  0.08120
EC46   EC   0.49305  0.31155  0.58120
EC47   EC   0.49305  0.68845  0.91880
EC48   EC   0.49305  0.81155  0.41880
EC49   EC   0.50695  0.18845  0.58120
EC50   EC   0.50695  0.31155  0.08120
EC51   EC   0.50695  0.68845  0.41880
EC52   EC   0.50695  0.81155  0.91880
EC53   EC   0.56155  0.24305  0.16880
EC54   EC   0.56155  0.25695  0.66880
EC55   EC   0.56155  0.74305  0.83120
EC56   EC   0.56155  0.75695  0.33120
EC57   EC   0.58120  0.00695  0.81155
EC58   EC   0.58120  0.49305  0.31155
EC59   EC   0.58120  0.50695  0.18845
EC60   EC   0.58120  0.99305  0.68845
EC61   EC   0.66880  0.06155  0.74305
EC62   EC   0.66880  0.43845  0.24305
EC63   EC   0.66880  0.56155  0.25695
EC64   EC   0.66880  0.93845  0.75695
EC65   EC   0.68845  0.08120  0.00695
EC66   EC   0.68845  0.41880  0.50695
EC67   EC   0.68845  0.58120  0.99305
EC68   EC   0.68845  0.91880  0.49305
EC69   EC   0.74305  0.16880  0.93845
EC70   EC   0.74305  0.33120  0.43845
EC71   EC   0.74305  0.66880  0.06155
EC72   EC   0.74305  0.83120  0.56155
EC73   EC   0.75695  0.16880  0.06155
EC74   EC   0.75695  0.33120  0.56155
EC75   EC   0.75695  0.66880  0.93845
EC76   EC   0.75695  0.83120  0.43845
EC77   EC   0.81155  0.08120  0.99305
EC78   EC   0.81155  0.41880  0.49305
EC79   EC   0.81155  0.58120  0.00695
EC80   EC   0.81155  0.91880  0.50695
EC81   EC   0.83120  0.06155  0.25695
EC82   EC   0.83120  0.43845  0.75695
EC83   EC   0.83120  0.56155  0.74305
EC84   EC   0.83120  0.93845  0.24305
EC85   EC   0.91880  0.00695  0.18845
EC86   EC   0.91880  0.49305  0.68845
EC87   EC   0.91880  0.50695  0.81155
EC88   EC   0.91880  0.99305  0.31155
EC89   EC   0.93845  0.24305  0.83120
EC90   EC   0.93845  0.25695  0.33120
EC91   EC   0.93845  0.74305  0.16880
EC92   EC   0.93845  0.75695  0.66880
EC93   EC   0.99305  0.18845  0.41880
EC94   EC   0.99305  0.31155  0.91880
EC95   EC   0.99305  0.68845  0.58120
EC96   EC   0.99305  0.81155  0.08120
E1    E   0.00000  0.25000  0.33120
E2    E   0.00000  0.25000  0.41880
E3    E   0.00000  0.25000  0.83120
E4    E   0.00000  0.25000  0.91880
E5    E   0.00000  0.75000  0.08120
E6    E   0.00000  0.75000  0.16880
E7    E   0.00000  0.75000  0.58120
E8    E   0.00000  0.75000  0.66880
E9    E   0.00154  0.05113  0.03492
E10   E   0.00154  0.44887  0.53492
E11   E   0.00154  0.55113  0.96508
E12   E   0.00154  0.94887  0.46508
E13   E   0.01235  0.13648  0.95206
E14   E   0.01235  0.36352  0.45206
E15   E   0.01235  0.63648  0.04794
E16   E   0.01235  0.86352  0.54794
E17   E   0.01621  0.03338  0.95041
E18   E   0.01621  0.46662  0.45041
E19   E   0.01621  0.53338  0.04959
E20   E   0.01621  0.96662  0.54959
E21   E   0.02730  0.21575  0.37500
E22   E   0.02730  0.28425  0.87500
E23   E   0.02730  0.71575  0.62500
E24   E   0.02730  0.78425  0.12500
E25   E   0.03338  0.04959  0.48379
E26   E   0.03338  0.45041  0.98379
E27   E   0.03338  0.54959  0.51621
E28   E   0.03338  0.95041  0.01621
E29   E   0.03425  0.22270  0.87500
E30   E   0.03425  0.27730  0.37500
E31   E   0.03425  0.72270  0.12500
E32   E   0.03425  0.77730  0.62500
E33   E   0.03492  0.00154  0.05113
E34   E   0.03492  0.49846  0.55113
E35   E   0.03492  0.50154  0.94887
E36   E   0.03492  0.99846  0.44887
E37   E   0.04794  0.01235  0.63648
E38   E   0.04794  0.48765  0.13648
E39   E   0.04794  0.51235  0.36352
E40   E   0.04794  0.98765  0.86352
E41   E   0.04959  0.01621  0.53338
E42   E   0.04959  0.48379  0.03338
E43   E   0.04959  0.51621  0.46662
E44   E   0.04959  0.98379  0.96662
E45   E   0.05113  0.03492  0.00154
E46   E   0.05113  0.46508  0.50154
E47   E   0.05113  0.53492  0.99846
E48   E   0.05113  0.96508  0.49846
E49   E   0.08120  0.00000  0.75000
E50   E   0.08120  0.50000  0.25000
E51   E   0.11352  0.23765  0.29794
E52   E   0.11352  0.26235  0.79794
E53   E   0.11352  0.73765  0.70206
E54   E   0.11352  0.76235  0.20206
E55   E   0.12500  0.02730  0.78425
E56   E   0.12500  0.03425  0.72270
E57   E   0.12500  0.46575  0.22270
E58   E   0.12500  0.47270  0.28425
E59   E   0.12500  0.52730  0.21575
E60   E   0.12500  0.53425  0.27730
E61   E   0.12500  0.96575  0.77730
E62   E   0.12500  0.97270  0.71575
E63   E   0.13648  0.04794  0.48765
E64   E   0.13648  0.45206  0.98765
E65   E   0.13648  0.54794  0.51235
E66   E   0.13648  0.95206  0.01235
E67   E   0.16880  0.00000  0.75000
E68   E   0.16880  0.50000  0.25000
E69   E   0.19887  0.24846  0.21508
E70   E   0.19887  0.25154  0.71508
E71   E   0.19887  0.74846  0.78492
E72   E   0.19887  0.75154  0.28492
E73   E   0.20041  0.21662  0.76621
E74   E   0.20041  0.28338  0.26621
E75   E   0.20041  0.71662  0.23379
E76   E   0.20041  0.78338  0.73379
E77   E   0.20206  0.11352  0.76235
E78   E   0.20206  0.38648  0.26235
E79   E   0.20206  0.61352  0.23765
E80   E   0.20206  0.88648  0.73765
E81   E   0.21508  0.19887  0.24846
E82   E   0.21508  0.30113  0.74846
E83   E   0.21508  0.69887  0.75154
E84   E   0.21508  0.80113  0.25154
E85   E   0.21575  0.12500  0.52730
E86   E   0.21575  0.37500  0.02730
E87   E   0.21575  0.62500  0.47270
E88   E   0.21575  0.87500  0.97270
E89   E   0.21662  0.23379  0.29959
E90   E   0.21662  0.26621  0.79959
E91   E   0.21662  0.73379  0.70041
E92   E   0.21662  0.76621  0.20041
E93   E   0.22270  0.12500  0.46575
E94   E   0.22270  0.37500  0.96575
E95   E   0.22270  0.62500  0.53425
E96   E   0.22270  0.87500  0.03425
E97   E   0.23379  0.20041  0.71662
E98   E   0.23379  0.29959  0.21662
E99   E   0.23379  0.70041  0.28338
E100  E   0.23379  0.79959  0.78338
E101  E   0.23765  0.20206  0.61352
E102  E   0.23765  0.29794  0.11352
E103  E   0.23765  0.70206  0.38648
E104  E   0.23765  0.79794  0.88648
E105  E   0.24846  0.21508  0.19887
E106  E   0.24846  0.28492  0.69887
E107  E   0.24846  0.71508  0.80113
E108  E   0.24846  0.78492  0.30113
E109  E   0.25000  0.08120  0.50000
E110  E   0.25000  0.16880  0.50000
E111  E   0.25000  0.33120  0.00000
E112  E   0.25000  0.41880  0.00000
E113  E   0.25000  0.58120  0.50000
E114  E   0.25000  0.66880  0.50000
E115  E   0.25000  0.83120  0.00000
E116  E   0.25000  0.91880  0.00000
E117  E   0.25154  0.21508  0.80113
E118  E   0.25154  0.28492  0.30113
E119  E   0.25154  0.71508  0.19887
E120  E   0.25154  0.78492  0.69887
E121  E   0.26235  0.20206  0.38648
E122  E   0.26235  0.29794  0.88648
E123  E   0.26235  0.70206  0.61352
E124  E   0.26235  0.79794  0.11352
E125  E   0.26621  0.20041  0.28338
E126  E   0.26621  0.29959  0.78338
E127  E   0.26621  0.70041  0.71662
E128  E   0.26621  0.79959  0.21662
E129  E   0.27730  0.12500  0.53425
E130  E   0.27730  0.37500  0.03425
E131  E   0.27730  0.62500  0.46575
E132  E   0.27730  0.87500  0.96575
E133  E   0.28338  0.23379  0.70041
E134  E   0.28338  0.26621  0.20041
E135  E   0.28338  0.73379  0.29959
E136  E   0.28338  0.76621  0.79959
E137  E   0.28425  0.12500  0.47270
E138  E   0.28425  0.37500  0.97270
E139  E   0.28425  0.62500  0.52730
E140  E   0.28425  0.87500  0.02730
E141  E   0.28492  0.19887  0.75154
E142  E   0.28492  0.30113  0.25154
E143  E   0.28492  0.69887  0.24846
E144  E   0.28492  0.80113  0.74846
E145  E   0.29794  0.11352  0.23765
E146  E   0.29794  0.38648  0.73765
E147  E   0.29794  0.61352  0.76235
E148  E   0.29794  0.88648  0.26235
E149  E   0.29959  0.21662  0.23379
E150  E   0.29959  0.28338  0.73379
E151  E   0.29959  0.71662  0.76621
E152  E   0.29959  0.78338  0.26621
E153  E   0.30113  0.24846  0.78492
E154  E   0.30113  0.25154  0.28492
E155  E   0.30113  0.74846  0.21508
E156  E   0.30113  0.75154  0.71508
E157  E   0.33120  0.00000  0.25000
E158  E   0.33120  0.50000  0.75000
E159  E   0.36352  0.04794  0.51235
E160  E   0.36352  0.45206  0.01235
E161  E   0.36352  0.54794  0.48765
E162  E   0.36352  0.95206  0.98765
E163  E   0.37500  0.02730  0.21575
E164  E   0.37500  0.03425  0.27730
E165  E   0.37500  0.46575  0.77730
E166  E   0.37500  0.47270  0.71575
E167  E   0.37500  0.52730  0.78425
E168  E   0.37500  0.53425  0.72270
E169  E   0.37500  0.96575  0.22270
E170  E   0.37500  0.97270  0.28425
E171  E   0.38648  0.23765  0.70206
E172  E   0.38648  0.26235  0.20206
E173  E   0.38648  0.73765  0.29794
E174  E   0.38648  0.76235  0.79794
E175  E   0.41880  0.00000  0.25000
E176  E   0.41880  0.50000  0.75000
E177  E   0.44887  0.03492  0.99846
E178  E   0.44887  0.46508  0.49846
E179  E   0.44887  0.53492  0.00154
E180  E   0.44887  0.96508  0.50154
E181  E   0.45041  0.01621  0.46662
E182  E   0.45041  0.48379  0.96662
E183  E   0.45041  0.51621  0.53338
E184  E   0.45041  0.98379  0.03338
E185  E   0.45206  0.01235  0.36352
E186  E   0.45206  0.48765  0.86352
E187  E   0.45206  0.51235  0.63648
E188  E   0.45206  0.98765  0.13648
E189  E   0.46508  0.00154  0.94887
E190  E   0.46508  0.49846  0.44887
E191  E   0.46508  0.50154  0.05113
E192  E   0.46508  0.99846  0.55113
E193  E   0.46575  0.22270  0.12500
E194  E   0.46575  0.27730  0.62500
E195  E   0.46575  0.72270  0.87500
E196  E   0.46575  0.77730  0.37500
E197  E   0.46662  0.04959  0.51621
E198  E   0.46662  0.45041  0.01621
E199  E   0.46662  0.54959  0.48379
E200  E   0.46662  0.95041  0.98379
E201  E   0.47270  0.21575  0.62500
E202  E   0.47270  0.28425  0.12500
E203  E   0.47270  0.71575  0.37500
E204  E   0.47270  0.78425  0.87500
E205  E   0.48379  0.03338  0.04959
E206  E   0.48379  0.46662  0.54959
E207  E   0.48379  0.53338  0.95041
E208  E   0.48379  0.96662  0.45041
E209  E   0.48765  0.13648  0.04794
E210  E   0.48765  0.36352  0.54794
E211  E   0.48765  0.63648  0.95206
E212  E   0.48765  0.86352  0.45206
E213  E   0.49846  0.05113  0.96508
E214  E   0.49846  0.44887  0.46508
E215  E   0.49846  0.55113  0.03492
E216  E   0.49846  0.94887  0.53492
E217  E   0.50000  0.25000  0.08120
E218  E   0.50000  0.25000  0.16880
E219  E   0.50000  0.25000  0.58120
E220  E   0.50000  0.25000  0.66880
E221  E   0.50000  0.75000  0.33120
E222  E   0.50000  0.75000  0.41880
E223  E   0.50000  0.75000  0.83120
E224  E   0.50000  0.75000  0.91880
E225  E   0.50154  0.05113  0.46508
E226  E   0.50154  0.44887  0.96508
E227  E   0.50154  0.55113  0.53492
E228  E   0.50154  0.94887  0.03492
E229  E   0.51235  0.13648  0.54794
E230  E   0.51235  0.36352  0.04794
E231  E   0.51235  0.63648  0.45206
E232  E   0.51235  0.86352  0.95206
E233  E   0.51621  0.03338  0.54959
E234  E   0.51621  0.46662  0.04959
E235  E   0.51621  0.53338  0.45041
E236  E   0.51621  0.96662  0.95041
E237  E   0.52730  0.21575  0.12500
E238  E   0.52730  0.28425  0.62500
E239  E   0.52730  0.71575  0.87500
E240  E   0.52730  0.78425  0.37500
E241  E   0.53338  0.04959  0.01621
E242  E   0.53338  0.45041  0.51621
E243  E   0.53338  0.54959  0.98379
E244  E   0.53338  0.95041  0.48379
E245  E   0.53425  0.22270  0.62500
E246  E   0.53425  0.27730  0.12500
E247  E   0.53425  0.72270  0.37500
E248  E   0.53425  0.77730  0.87500
E249  E   0.53492  0.00154  0.44887
E250  E   0.53492  0.49846  0.94887
E251  E   0.53492  0.50154  0.55113
E252  E   0.53492  0.99846  0.05113
E253  E   0.54794  0.01235  0.86352
E254  E   0.54794  0.48765  0.36352
E255  E   0.54794  0.51235  0.13648
E256  E   0.54794  0.98765  0.63648
E257  E   0.54959  0.01621  0.96662
E258  E   0.54959  0.48379  0.46662
E259  E   0.54959  0.51621  0.03338
E260  E   0.54959  0.98379  0.53338
E261  E   0.55113  0.03492  0.49846
E262  E   0.55113  0.46508  0.99846
E263  E   0.55113  0.53492  0.50154
E264  E   0.55113  0.96508  0.00154
E265  E   0.58120  0.00000  0.75000
E266  E   0.58120  0.50000  0.25000
E267  E   0.61352  0.23765  0.20206
E268  E   0.61352  0.26235  0.70206
E269  E   0.61352  0.73765  0.79794
E270  E   0.61352  0.76235  0.29794
E271  E   0.62500  0.02730  0.71575
E272  E   0.62500  0.03425  0.77730
E273  E   0.62500  0.46575  0.27730
E274  E   0.62500  0.47270  0.21575
E275  E   0.62500  0.52730  0.28425
E276  E   0.62500  0.53425  0.22270
E277  E   0.62500  0.96575  0.72270
E278  E   0.62500  0.97270  0.78425
E279  E   0.63648  0.04794  0.01235
E280  E   0.63648  0.45206  0.51235
E281  E   0.63648  0.54794  0.98765
E282  E   0.63648  0.95206  0.48765
E283  E   0.66880  0.00000  0.75000
E284  E   0.66880  0.50000  0.25000
E285  E   0.69887  0.24846  0.28492
E286  E   0.69887  0.25154  0.78492
E287  E   0.69887  0.74846  0.71508
E288  E   0.69887  0.75154  0.21508
E289  E   0.70041  0.21662  0.73379
E290  E   0.70041  0.28338  0.23379
E291  E   0.70041  0.71662  0.26621
E292  E   0.70041  0.78338  0.76621
E293  E   0.70206  0.11352  0.73765
E294  E   0.70206  0.38648  0.23765
E295  E   0.70206  0.61352  0.26235
E296  E   0.70206  0.88648  0.76235
E297  E   0.71508  0.19887  0.25154
E298  E   0.71508  0.30113  0.75154
E299  E   0.71508  0.69887  0.74846
E300  E   0.71508  0.80113  0.24846
E301  E   0.71575  0.12500  0.97270
E302  E   0.71575  0.37500  0.47270
E303  E   0.71575  0.62500  0.02730
E304  E   0.71575  0.87500  0.52730
E305  E   0.71662  0.23379  0.20041
E306  E   0.71662  0.26621  0.70041
E307  E   0.71662  0.73379  0.79959
E308  E   0.71662  0.76621  0.29959
E309  E   0.72270  0.12500  0.03425
E310  E   0.72270  0.37500  0.53425
E311  E   0.72270  0.62500  0.96575
E312  E   0.72270  0.87500  0.46575
E313  E   0.73379  0.20041  0.78338
E314  E   0.73379  0.29959  0.28338
E315  E   0.73379  0.70041  0.21662
E316  E   0.73379  0.79959  0.71662
E317  E   0.73765  0.20206  0.88648
E318  E   0.73765  0.29794  0.38648
E319  E   0.73765  0.70206  0.11352
E320  E   0.73765  0.79794  0.61352
E321  E   0.74846  0.21508  0.30113
E322  E   0.74846  0.28492  0.80113
E323  E   0.74846  0.71508  0.69887
E324  E   0.74846  0.78492  0.19887
E325  E   0.75000  0.08120  0.00000
E326  E   0.75000  0.16880  0.00000
E327  E   0.75000  0.33120  0.50000
E328  E   0.75000  0.41880  0.50000
E329  E   0.75000  0.58120  0.00000
E330  E   0.75000  0.66880  0.00000
E331  E   0.75000  0.83120  0.50000
E332  E   0.75000  0.91880  0.50000
E333  E   0.75154  0.21508  0.69887
E334  E   0.75154  0.28492  0.19887
E335  E   0.75154  0.71508  0.30113
E336  E   0.75154  0.78492  0.80113
E337  E   0.76235  0.20206  0.11352
E338  E   0.76235  0.29794  0.61352
E339  E   0.76235  0.70206  0.88648
E340  E   0.76235  0.79794  0.38648
E341  E   0.76621  0.20041  0.21662
E342  E   0.76621  0.29959  0.71662
E343  E   0.76621  0.70041  0.78338
E344  E   0.76621  0.79959  0.28338
E345  E   0.77730  0.12500  0.96575
E346  E   0.77730  0.37500  0.46575
E347  E   0.77730  0.62500  0.03425
E348  E   0.77730  0.87500  0.53425
E349  E   0.78338  0.23379  0.79959
E350  E   0.78338  0.26621  0.29959
E351  E   0.78338  0.73379  0.20041
E352  E   0.78338  0.76621  0.70041
E353  E   0.78425  0.12500  0.02730
E354  E   0.78425  0.37500  0.52730
E355  E   0.78425  0.62500  0.97270
E356  E   0.78425  0.87500  0.47270
E357  E   0.78492  0.19887  0.74846
E358  E   0.78492  0.30113  0.24846
E359  E   0.78492  0.69887  0.25154
E360  E   0.78492  0.80113  0.75154
E361  E   0.79794  0.11352  0.26235
E362  E   0.79794  0.38648  0.76235
E363  E   0.79794  0.61352  0.73765
E364  E   0.79794  0.88648  0.23765
E365  E   0.79959  0.21662  0.26621
E366  E   0.79959  0.28338  0.76621
E367  E   0.79959  0.71662  0.73379
E368  E   0.79959  0.78338  0.23379
E369  E   0.80113  0.24846  0.71508
E370  E   0.80113  0.25154  0.21508
E371  E   0.80113  0.74846  0.28492
E372  E   0.80113  0.75154  0.78492
E373  E   0.83120  0.00000  0.25000
E374  E   0.83120  0.50000  0.75000
E375  E   0.86352  0.04794  0.98765
E376  E   0.86352  0.45206  0.48765
E377  E   0.86352  0.54794  0.01235
E378  E   0.86352  0.95206  0.51235
E379  E   0.87500  0.02730  0.28425
E380  E   0.87500  0.03425  0.22270
E381  E   0.87500  0.46575  0.72270
E382  E   0.87500  0.47270  0.78425
E383  E   0.87500  0.52730  0.71575
E384  E   0.87500  0.53425  0.77730
E385  E   0.87500  0.96575  0.27730
E386  E   0.87500  0.97270  0.21575
E387  E   0.88648  0.23765  0.79794
E388  E   0.88648  0.26235  0.29794
E389  E   0.88648  0.73765  0.20206
E390  E   0.88648  0.76235  0.70206
E391  E   0.91880  0.00000  0.25000
E392  E   0.91880  0.50000  0.75000
E393  E   0.94887  0.03492  0.50154
E394  E   0.94887  0.46508  0.00154
E395  E   0.94887  0.53492  0.49846
E396  E   0.94887  0.96508  0.99846
E397  E   0.95041  0.01621  0.03338
E398  E   0.95041  0.48379  0.53338
E399  E   0.95041  0.51621  0.96662
E400  E   0.95041  0.98379  0.46662
E401  E   0.95206  0.01235  0.13648
E402  E   0.95206  0.48765  0.63648
E403  E   0.95206  0.51235  0.86352
E404  E   0.95206  0.98765  0.36352
E405  E   0.96508  0.00154  0.55113
E406  E   0.96508  0.49846  0.05113
E407  E   0.96508  0.50154  0.44887
E408  E   0.96508  0.99846  0.94887
E409  E   0.96575  0.22270  0.37500
E410  E   0.96575  0.27730  0.87500
E411  E   0.96575  0.72270  0.62500
E412  E   0.96575  0.77730  0.12500
E413  E   0.96662  0.04959  0.98379
E414  E   0.96662  0.45041  0.48379
E415  E   0.96662  0.54959  0.01621
E416  E   0.96662  0.95041  0.51621
E417  E   0.97270  0.21575  0.87500
E418  E   0.97270  0.28425  0.37500
E419  E   0.97270  0.71575  0.12500
E420  E   0.97270  0.78425  0.62500
E421  E   0.98379  0.03338  0.45041
E422  E   0.98379  0.46662  0.95041
E423  E   0.98379  0.53338  0.54959
E424  E   0.98379  0.96662  0.04959
E425  E   0.98765  0.13648  0.45206
E426  E   0.98765  0.36352  0.95206
E427  E   0.98765  0.63648  0.54794
E428  E   0.98765  0.86352  0.04794
E429  E   0.99846  0.05113  0.53492
E430  E   0.99846  0.44887  0.03492
E431  E   0.99846  0.55113  0.46508
E432  E   0.99846  0.94887  0.96508
loop_
