data_gcc_P6/mmm  hall_number: 485, V_con: 4, EC_con: 4
_audit_creation_date              2025-03-05
_audit_creation_method            'MOFbuilder_1.0'
_symmetry_space_group_name_H-M    'P1'
_symmetry_Int_Tables_number       1
_symmetry_cell_setting            triclinic
loop_
_symmetry_equiv_pos_as_xyz
  x,y,z
_cell_length_a                    57.7282
_cell_length_b                    57.7282
_cell_length_c                    21.988400000000002
_cell_angle_alpha                 90.0
_cell_angle_beta                  90.0
_cell_angle_gamma                 120.0
loop_
_atom_site_label
_atom_site_type_symbol
_atom_site_fract_x
_atom_site_fract_y
_atom_site_fract_z
V1    V   0.16011  0.49344  0.00000
V2    V   0.16011  0.66667  0.00000
V3    V   0.33333  0.49344  0.00000
V4    V   0.33333  0.83989  0.00000
V5    V   0.49344  0.16011  0.00000
V6    V   0.49344  0.33333  0.00000
V7    V   0.50656  0.66667  0.00000
V8    V   0.50656  0.83989  0.00000
V9    V   0.66667  0.16011  0.00000
V10   V   0.66667  0.50656  0.00000
V11   V   0.83989  0.33333  0.00000
V12   V   0.83989  0.50656  0.00000
EC1    EC   0.00000  0.41339  0.27260
EC2    EC   0.00000  0.41339  0.72740
EC3    EC   0.00000  0.58661  0.27260
EC4    EC   0.00000  0.58661  0.72740
EC5    EC   0.41339  0.00000  0.27260
EC6    EC   0.41339  0.00000  0.72740
EC7    EC   0.41339  0.41339  0.27260
EC8    EC   0.41339  0.41339  0.72740
EC9    EC   0.58661  0.00000  0.27260
EC10   EC   0.58661  0.00000  0.72740
EC11   EC   0.58661  0.58661  0.27260
EC12   EC   0.58661  0.58661  0.72740
E1    E   0.00000  0.41339  0.50000
E2    E   0.00000  0.50000  0.27260
E3    E   0.00000  0.50000  0.72740
E4    E   0.00000  0.58661  0.50000
E5    E   0.08005  0.45341  0.13630
E6    E   0.08005  0.45341  0.86370
E7    E   0.08005  0.62664  0.13630
E8    E   0.08005  0.62664  0.86370
E9    E   0.16011  0.58005  0.00000
E10   E   0.16011  0.58006  0.00000
E11   E   0.24672  0.49344  0.00000
E12   E   0.24672  0.75328  0.00000
E13   E   0.37336  0.45341  0.13630
E14   E   0.37336  0.45341  0.86370
E15   E   0.37336  0.91995  0.13630
E16   E   0.37336  0.91995  0.86370
E17   E   0.41339  0.00000  0.50000
E18   E   0.41339  0.41339  0.50000
E19   E   0.41994  0.58005  0.00000
E20   E   0.41994  0.83989  0.00000
E21   E   0.41995  0.58006  0.00000
E22   E   0.41995  0.83989  0.00000
E23   E   0.45341  0.08005  0.13630
E24   E   0.45341  0.08005  0.86370
E25   E   0.45341  0.37336  0.13630
E26   E   0.45341  0.37336  0.86370
E27   E   0.49344  0.24672  0.00000
E28   E   0.50000  0.00000  0.27260
E29   E   0.50000  0.00000  0.72740
E30   E   0.50000  0.50000  0.27260
E31   E   0.50000  0.50000  0.72740
E32   E   0.50656  0.75328  0.00000
E33   E   0.54659  0.62664  0.13630
E34   E   0.54659  0.62664  0.86370
E35   E   0.54659  0.91995  0.13630
E36   E   0.54659  0.91995  0.86370
E37   E   0.58005  0.16011  0.00000
E38   E   0.58005  0.41994  0.00000
E39   E   0.58006  0.16011  0.00000
E40   E   0.58006  0.41995  0.00000
E41   E   0.58661  0.00000  0.50000
E42   E   0.58661  0.58661  0.50000
E43   E   0.62664  0.08005  0.13630
E44   E   0.62664  0.08005  0.86370
E45   E   0.62664  0.54659  0.13630
E46   E   0.62664  0.54659  0.86370
E47   E   0.75328  0.24672  0.00000
E48   E   0.75328  0.50656  0.00000
E49   E   0.83989  0.41994  0.00000
E50   E   0.83989  0.41995  0.00000
E51   E   0.91995  0.37336  0.13630
E52   E   0.91995  0.37336  0.86370
E53   E   0.91995  0.54659  0.13630
E54   E   0.91995  0.54659  0.86370
loop_
