data_gis-e_I41/amd:2  hall_number: 427, V_con: 6, EC_con: 6
_audit_creation_date              2025-03-05
_audit_creation_method            'MOFbuilder_1.0'
_symmetry_space_group_name_H-M    'P1'
_symmetry_Int_Tables_number       1
_symmetry_cell_setting            triclinic
loop_
_symmetry_equiv_pos_as_xyz
  x,y,z
_cell_length_a                    38.4002
_cell_length_b                    38.4002
_cell_length_c                    37.1062
_cell_angle_alpha                 90.0
_cell_angle_beta                  90.0
_cell_angle_gamma                 90.0
loop_
_atom_site_label
_atom_site_type_symbol
_atom_site_fract_x
_atom_site_fract_y
_atom_site_fract_z
V1    V   0.18123  0.00000  0.00000
V2    V   0.18123  0.50000  0.00000
V3    V   0.25000  0.06877  0.75000
V4    V   0.25000  0.43123  0.75000
V5    V   0.25000  0.56877  0.25000
V6    V   0.25000  0.93123  0.25000
V7    V   0.31877  0.00000  0.50000
V8    V   0.31877  0.50000  0.50000
V9    V   0.68123  0.00000  0.50000
V10   V   0.68123  0.50000  0.50000
V11   V   0.75000  0.06877  0.75000
V12   V   0.75000  0.43123  0.75000
V13   V   0.75000  0.56877  0.25000
V14   V   0.75000  0.93123  0.25000
V15   V   0.81877  0.00000  0.00000
V16   V   0.81877  0.50000  0.00000
EC1    EC   0.00000  0.07918  0.82468
EC2    EC   0.00000  0.42082  0.82468
EC3    EC   0.00000  0.57918  0.17532
EC4    EC   0.00000  0.92082  0.17532
EC5    EC   0.17082  0.25000  0.92532
EC6    EC   0.17082  0.75000  0.07468
EC7    EC   0.32918  0.25000  0.57468
EC8    EC   0.32918  0.75000  0.42532
EC9    EC   0.50000  0.07918  0.67532
EC10   EC   0.50000  0.42082  0.67532
EC11   EC   0.50000  0.57918  0.32468
EC12   EC   0.50000  0.92082  0.32468
EC13   EC   0.67082  0.25000  0.57468
EC14   EC   0.67082  0.75000  0.42532
EC15   EC   0.82918  0.25000  0.92532
EC16   EC   0.82918  0.75000  0.07468
E1    E   0.08541  0.16459  0.87500
E2    E   0.08541  0.33541  0.87500
E3    E   0.08541  0.66459  0.12500
E4    E   0.08541  0.83541  0.12500
E5    E   0.08541  0.16459  0.87500
E6    E   0.08541  0.33541  0.87500
E7    E   0.08541  0.66459  0.12500
E8    E   0.08541  0.83541  0.12500
E9    E   0.09062  0.03959  0.91234
E10   E   0.09062  0.46041  0.91234
E11   E   0.09062  0.53959  0.08766
E12   E   0.09062  0.96041  0.08766
E13   E   0.12500  0.07398  0.78734
E14   E   0.12500  0.42602  0.78734
E15   E   0.12500  0.57398  0.21266
E16   E   0.12500  0.92602  0.21266
E17   E   0.17602  0.12500  0.96266
E18   E   0.17602  0.37500  0.96266
E19   E   0.17602  0.62500  0.03734
E20   E   0.17602  0.87500  0.03734
E21   E   0.21041  0.15938  0.83766
E22   E   0.21041  0.34062  0.83766
E23   E   0.21041  0.65938  0.16234
E24   E   0.21041  0.84062  0.16234
E25   E   0.21562  0.03438  0.87500
E26   E   0.21562  0.03438  0.87500
E27   E   0.21562  0.46562  0.87500
E28   E   0.21562  0.46562  0.87500
E29   E   0.21562  0.53438  0.12500
E30   E   0.21562  0.96562  0.12500
E31   E   0.28438  0.03438  0.62500
E32   E   0.28438  0.46562  0.62500
E33   E   0.28438  0.53438  0.37500
E34   E   0.28438  0.96562  0.37500
E35   E   0.28438  0.03438  0.62500
E36   E   0.28438  0.46562  0.62500
E37   E   0.28438  0.53438  0.37500
E38   E   0.28438  0.96562  0.37500
E39   E   0.28959  0.15938  0.66234
E40   E   0.28959  0.34062  0.66234
E41   E   0.28959  0.65938  0.33766
E42   E   0.28959  0.84062  0.33766
E43   E   0.32398  0.12500  0.53734
E44   E   0.32398  0.37500  0.53734
E45   E   0.32398  0.62500  0.46266
E46   E   0.32398  0.87500  0.46266
E47   E   0.37500  0.07398  0.71266
E48   E   0.37500  0.42602  0.71266
E49   E   0.37500  0.57398  0.28734
E50   E   0.37500  0.92602  0.28734
E51   E   0.40938  0.03959  0.58766
E52   E   0.40938  0.46041  0.58766
E53   E   0.40938  0.53959  0.41234
E54   E   0.40938  0.96041  0.41234
E55   E   0.41459  0.16459  0.62500
E56   E   0.41459  0.33541  0.62500
E57   E   0.41459  0.66459  0.37500
E58   E   0.41459  0.83541  0.37500
E59   E   0.58541  0.16459  0.62500
E60   E   0.58541  0.33541  0.62500
E61   E   0.58541  0.66459  0.37500
E62   E   0.58541  0.83541  0.37500
E63   E   0.59062  0.03959  0.58766
E64   E   0.59062  0.46041  0.58766
E65   E   0.59062  0.53959  0.41234
E66   E   0.59062  0.96041  0.41234
E67   E   0.62500  0.07398  0.71266
E68   E   0.62500  0.42602  0.71266
E69   E   0.62500  0.57398  0.28734
E70   E   0.62500  0.92602  0.28734
E71   E   0.67602  0.12500  0.53734
E72   E   0.67602  0.37500  0.53734
E73   E   0.67602  0.62500  0.46266
E74   E   0.67602  0.87500  0.46266
E75   E   0.71041  0.15938  0.66234
E76   E   0.71041  0.34062  0.66234
E77   E   0.71041  0.65938  0.33766
E78   E   0.71041  0.84062  0.33766
E79   E   0.71562  0.03438  0.62500
E80   E   0.71562  0.03438  0.62500
E81   E   0.71562  0.46562  0.62500
E82   E   0.71562  0.46562  0.62500
E83   E   0.71562  0.53438  0.37500
E84   E   0.71562  0.96562  0.37500
E85   E   0.78438  0.03438  0.87500
E86   E   0.78438  0.03438  0.87500
E87   E   0.78438  0.46562  0.87500
E88   E   0.78438  0.46562  0.87500
E89   E   0.78438  0.53438  0.12500
E90   E   0.78438  0.96562  0.12500
E91   E   0.78959  0.15938  0.83766
E92   E   0.78959  0.34062  0.83766
E93   E   0.78959  0.65938  0.16234
E94   E   0.78959  0.84062  0.16234
E95   E   0.82398  0.12500  0.96266
E96   E   0.82398  0.37500  0.96266
E97   E   0.82398  0.62500  0.03734
E98   E   0.82398  0.87500  0.03734
E99   E   0.87500  0.07398  0.78734
E100  E   0.87500  0.42602  0.78734
E101  E   0.87500  0.57398  0.21266
E102  E   0.87500  0.92602  0.21266
E103  E   0.90938  0.03959  0.91234
E104  E   0.90938  0.46041  0.91234
E105  E   0.90938  0.53959  0.08766
E106  E   0.90938  0.96041  0.08766
E107  E   0.91459  0.16459  0.87500
E108  E   0.91459  0.33541  0.87500
E109  E   0.91459  0.66459  0.12500
E110  E   0.91459  0.83541  0.12500
loop_
