data_hal_Fm-3m  hall_number: 523, V_con: 4
_audit_creation_date              2025-03-05
_audit_creation_method            'MOFbuilder_1.0'
_symmetry_space_group_name_H-M    'P1'
_symmetry_Int_Tables_number       1
_symmetry_cell_setting            triclinic
loop_
_symmetry_equiv_pos_as_xyz
  x,y,z
_cell_length_a                    62.4264
_cell_length_b                    62.4264
_cell_length_c                    62.4264
_cell_angle_alpha                 90.0
_cell_angle_beta                  90.0
_cell_angle_gamma                 90.0
loop_
_atom_site_label
_atom_site_type_symbol
_atom_site_fract_x
_atom_site_fract_y
_atom_site_fract_z
V1    V   0.08009  0.19336  0.30664
V2    V   0.08009  0.19336  0.69336
V3    V   0.08009  0.19336  0.30664
V4    V   0.08009  0.19336  0.69336
V5    V   0.08009  0.30664  0.19336
V6    V   0.08009  0.30664  0.19336
V7    V   0.08009  0.30664  0.80664
V8    V   0.08009  0.69336  0.19336
V9    V   0.08009  0.69336  0.19336
V10   V   0.08009  0.69336  0.80664
V11   V   0.08009  0.80664  0.30664
V12   V   0.08009  0.80664  0.69336
V13   V   0.19336  0.08009  0.30664
V14   V   0.19336  0.08009  0.69336
V15   V   0.19336  0.19336  0.41991
V16   V   0.19336  0.19336  0.58009
V17   V   0.19336  0.30664  0.08009
V18   V   0.19336  0.30664  0.91991
V19   V   0.19336  0.41991  0.19336
V20   V   0.19336  0.41991  0.80664
V21   V   0.19336  0.58009  0.19336
V22   V   0.19336  0.58009  0.80664
V23   V   0.19336  0.69336  0.08009
V24   V   0.19336  0.69336  0.91991
V25   V   0.19336  0.80664  0.41991
V26   V   0.19336  0.80664  0.58009
V27   V   0.19336  0.91991  0.30664
V28   V   0.19336  0.91991  0.69336
V29   V   0.19336  0.08009  0.30664
V30   V   0.19336  0.08009  0.69336
V31   V   0.19336  0.19336  0.41991
V32   V   0.19336  0.19336  0.58009
V33   V   0.19336  0.30664  0.08009
V34   V   0.19336  0.30664  0.91991
V35   V   0.19336  0.41991  0.19336
V36   V   0.19336  0.41991  0.80664
V37   V   0.19336  0.58009  0.19336
V38   V   0.19336  0.58009  0.80664
V39   V   0.19336  0.69336  0.08009
V40   V   0.19336  0.69336  0.91991
V41   V   0.19336  0.80664  0.41991
V42   V   0.19336  0.80664  0.58009
V43   V   0.19336  0.91991  0.30664
V44   V   0.19336  0.91991  0.69336
V45   V   0.30664  0.08009  0.19336
V46   V   0.30664  0.08009  0.19336
V47   V   0.30664  0.08009  0.80664
V48   V   0.30664  0.19336  0.08009
V49   V   0.30664  0.19336  0.91991
V50   V   0.30664  0.19336  0.08009
V51   V   0.30664  0.19336  0.91991
V52   V   0.30664  0.30664  0.41991
V53   V   0.30664  0.30664  0.58009
V54   V   0.30664  0.41991  0.30664
V55   V   0.30664  0.41991  0.69336
V56   V   0.30664  0.58009  0.30664
V57   V   0.30664  0.58009  0.69336
V58   V   0.30664  0.69336  0.41991
V59   V   0.30664  0.69336  0.58009
V60   V   0.30664  0.80664  0.08009
V61   V   0.30664  0.80664  0.91991
V62   V   0.30664  0.91991  0.19336
V63   V   0.30664  0.91991  0.19336
V64   V   0.30664  0.91991  0.80664
V65   V   0.41991  0.19336  0.19336
V66   V   0.41991  0.19336  0.80664
V67   V   0.41991  0.19336  0.19336
V68   V   0.41991  0.19336  0.80664
V69   V   0.41991  0.30664  0.30664
V70   V   0.41991  0.30664  0.69336
V71   V   0.41991  0.69336  0.30664
V72   V   0.41991  0.69336  0.69336
V73   V   0.41991  0.80664  0.19336
V74   V   0.41991  0.80664  0.19336
V75   V   0.41991  0.80664  0.80664
V76   V   0.58009  0.19336  0.19336
V77   V   0.58009  0.19336  0.80664
V78   V   0.58009  0.19336  0.19336
V79   V   0.58009  0.19336  0.80664
V80   V   0.58009  0.30664  0.30664
V81   V   0.58009  0.30664  0.69336
V82   V   0.58009  0.69336  0.30664
V83   V   0.58009  0.69336  0.69336
V84   V   0.58009  0.80664  0.19336
V85   V   0.58009  0.80664  0.19336
V86   V   0.58009  0.80664  0.80664
V87   V   0.69336  0.08009  0.19336
V88   V   0.69336  0.08009  0.19336
V89   V   0.69336  0.08009  0.80664
V90   V   0.69336  0.19336  0.08009
V91   V   0.69336  0.19336  0.91991
V92   V   0.69336  0.19336  0.08009
V93   V   0.69336  0.19336  0.91991
V94   V   0.69336  0.30664  0.41991
V95   V   0.69336  0.30664  0.58009
V96   V   0.69336  0.41991  0.30664
V97   V   0.69336  0.41991  0.69336
V98   V   0.69336  0.58009  0.30664
V99   V   0.69336  0.58009  0.69336
V100  V   0.69336  0.69336  0.41991
V101  V   0.69336  0.69336  0.58009
V102  V   0.69336  0.80664  0.08009
V103  V   0.69336  0.80664  0.91991
V104  V   0.69336  0.91991  0.19336
V105  V   0.69336  0.91991  0.19336
V106  V   0.69336  0.91991  0.80664
V107  V   0.80664  0.08009  0.30664
V108  V   0.80664  0.08009  0.69336
V109  V   0.80664  0.19336  0.41991
V110  V   0.80664  0.19336  0.58009
V111  V   0.80664  0.19336  0.41991
V112  V   0.80664  0.19336  0.58009
V113  V   0.80664  0.30664  0.08009
V114  V   0.80664  0.30664  0.91991
V115  V   0.80664  0.41991  0.19336
V116  V   0.80664  0.41991  0.19336
V117  V   0.80664  0.41991  0.80664
V118  V   0.80664  0.58009  0.19336
V119  V   0.80664  0.58009  0.19336
V120  V   0.80664  0.58009  0.80664
V121  V   0.80664  0.69336  0.08009
V122  V   0.80664  0.69336  0.91991
V123  V   0.80664  0.80664  0.41991
V124  V   0.80664  0.80664  0.58009
V125  V   0.80664  0.91991  0.30664
V126  V   0.80664  0.91991  0.69336
V127  V   0.91991  0.19336  0.30664
V128  V   0.91991  0.19336  0.69336
V129  V   0.91991  0.19336  0.30664
V130  V   0.91991  0.19336  0.69336
V131  V   0.91991  0.30664  0.19336
V132  V   0.91991  0.30664  0.19336
V133  V   0.91991  0.30664  0.80664
V134  V   0.91991  0.69336  0.19336
V135  V   0.91991  0.69336  0.19336
V136  V   0.91991  0.69336  0.80664
V137  V   0.91991  0.80664  0.30664
V138  V   0.91991  0.80664  0.69336
E1    E   0.00000  0.19336  0.30664
E2    E   0.00000  0.19336  0.69336
E3    E   0.00000  0.19336  0.30664
E4    E   0.00000  0.19336  0.69336
E5    E   0.00000  0.30664  0.19336
E6    E   0.00000  0.30664  0.19336
E7    E   0.00000  0.30664  0.80664
E8    E   0.00000  0.69336  0.19336
E9    E   0.00000  0.69336  0.19336
E10   E   0.00000  0.69336  0.80664
E11   E   0.00000  0.80664  0.30664
E12   E   0.00000  0.80664  0.69336
E13   E   0.08009  0.25000  0.25000
E14   E   0.08009  0.25000  0.75000
E15   E   0.08009  0.75000  0.25000
E16   E   0.08009  0.75000  0.75000
E17   E   0.13673  0.13673  0.30664
E18   E   0.13673  0.13673  0.69336
E19   E   0.13673  0.19336  0.36327
E20   E   0.13673  0.19336  0.63673
E21   E   0.13673  0.30664  0.13673
E22   E   0.13673  0.30664  0.86327
E23   E   0.13673  0.36327  0.19336
E24   E   0.13673  0.36327  0.80664
E25   E   0.13673  0.63673  0.19336
E26   E   0.13673  0.63673  0.80664
E27   E   0.13673  0.69336  0.13673
E28   E   0.13673  0.69336  0.86327
E29   E   0.13673  0.80664  0.36327
E30   E   0.13673  0.80664  0.63673
E31   E   0.13673  0.86327  0.30664
E32   E   0.13673  0.86327  0.69336
E33   E   0.19336  0.00000  0.30664
E34   E   0.19336  0.00000  0.69336
E35   E   0.19336  0.13673  0.36327
E36   E   0.19336  0.13673  0.63673
E37   E   0.19336  0.19336  0.50000
E38   E   0.19336  0.30664  0.00000
E39   E   0.19336  0.36327  0.13673
E40   E   0.19336  0.36327  0.86327
E41   E   0.19336  0.50000  0.19336
E42   E   0.19336  0.50000  0.80664
E43   E   0.19336  0.63673  0.13673
E44   E   0.19336  0.63673  0.86327
E45   E   0.19336  0.69336  0.00000
E46   E   0.19336  0.80664  0.50000
E47   E   0.19336  0.86327  0.36327
E48   E   0.19336  0.86327  0.63673
E49   E   0.19336  0.00000  0.30664
E50   E   0.19336  0.00000  0.69336
E51   E   0.19336  0.19336  0.50000
E52   E   0.19336  0.30664  0.00000
E53   E   0.19336  0.50000  0.19336
E54   E   0.19336  0.50000  0.80664
E55   E   0.19336  0.69336  0.00000
E56   E   0.19336  0.80664  0.50000
E57   E   0.25000  0.08009  0.25000
E58   E   0.25000  0.08009  0.75000
E59   E   0.25000  0.25000  0.08009
E60   E   0.25000  0.25000  0.41991
E61   E   0.25000  0.25000  0.58009
E62   E   0.25000  0.25000  0.91991
E63   E   0.25000  0.41991  0.25000
E64   E   0.25000  0.41991  0.75000
E65   E   0.25000  0.58009  0.25000
E66   E   0.25000  0.58009  0.75000
E67   E   0.25000  0.75000  0.08009
E68   E   0.25000  0.75000  0.41991
E69   E   0.25000  0.75000  0.58009
E70   E   0.25000  0.75000  0.91991
E71   E   0.25000  0.91991  0.25000
E72   E   0.25000  0.91991  0.75000
E73   E   0.30664  0.00000  0.19336
E74   E   0.30664  0.00000  0.19336
E75   E   0.30664  0.00000  0.80664
E76   E   0.30664  0.13673  0.13673
E77   E   0.30664  0.13673  0.86327
E78   E   0.30664  0.19336  0.00000
E79   E   0.30664  0.19336  0.00000
E80   E   0.30664  0.30664  0.50000
E81   E   0.30664  0.36327  0.36327
E82   E   0.30664  0.36327  0.63673
E83   E   0.30664  0.50000  0.30664
E84   E   0.30664  0.50000  0.69336
E85   E   0.30664  0.63673  0.36327
E86   E   0.30664  0.63673  0.63673
E87   E   0.30664  0.69336  0.50000
E88   E   0.30664  0.80664  0.00000
E89   E   0.30664  0.86327  0.13673
E90   E   0.30664  0.86327  0.86327
E91   E   0.36327  0.13673  0.19336
E92   E   0.36327  0.13673  0.80664
E93   E   0.36327  0.19336  0.13673
E94   E   0.36327  0.19336  0.86327
E95   E   0.36327  0.30664  0.36327
E96   E   0.36327  0.30664  0.63673
E97   E   0.36327  0.36327  0.30664
E98   E   0.36327  0.36327  0.69336
E99   E   0.36327  0.63673  0.30664
E100  E   0.36327  0.63673  0.69336
E101  E   0.36327  0.69336  0.36327
E102  E   0.36327  0.69336  0.63673
E103  E   0.36327  0.80664  0.13673
E104  E   0.36327  0.80664  0.86327
E105  E   0.36327  0.86327  0.19336
E106  E   0.36327  0.86327  0.80664
E107  E   0.41991  0.25000  0.25000
E108  E   0.41991  0.25000  0.75000
E109  E   0.41991  0.75000  0.25000
E110  E   0.41991  0.75000  0.75000
E111  E   0.50000  0.19336  0.19336
E112  E   0.50000  0.19336  0.80664
E113  E   0.50000  0.19336  0.19336
E114  E   0.50000  0.19336  0.80664
E115  E   0.50000  0.30664  0.30664
E116  E   0.50000  0.30664  0.69336
E117  E   0.50000  0.69336  0.30664
E118  E   0.50000  0.69336  0.69336
E119  E   0.50000  0.80664  0.19336
E120  E   0.50000  0.80664  0.19336
E121  E   0.50000  0.80664  0.80664
E122  E   0.58009  0.25000  0.25000
E123  E   0.58009  0.25000  0.75000
E124  E   0.58009  0.75000  0.25000
E125  E   0.58009  0.75000  0.75000
E126  E   0.63673  0.13673  0.19336
E127  E   0.63673  0.13673  0.80664
E128  E   0.63673  0.19336  0.13673
E129  E   0.63673  0.19336  0.86327
E130  E   0.63673  0.30664  0.36327
E131  E   0.63673  0.30664  0.63673
E132  E   0.63673  0.36327  0.30664
E133  E   0.63673  0.36327  0.69336
E134  E   0.63673  0.63673  0.30664
E135  E   0.63673  0.63673  0.69336
E136  E   0.63673  0.69336  0.36327
E137  E   0.63673  0.69336  0.63673
E138  E   0.63673  0.80664  0.13673
E139  E   0.63673  0.80664  0.86327
E140  E   0.63673  0.86327  0.19336
E141  E   0.63673  0.86327  0.80664
E142  E   0.69336  0.00000  0.19336
E143  E   0.69336  0.00000  0.19336
E144  E   0.69336  0.00000  0.80664
E145  E   0.69336  0.13673  0.13673
E146  E   0.69336  0.13673  0.86327
E147  E   0.69336  0.19336  0.00000
E148  E   0.69336  0.19336  0.00000
E149  E   0.69336  0.30664  0.50000
E150  E   0.69336  0.36327  0.36327
E151  E   0.69336  0.36327  0.63673
E152  E   0.69336  0.50000  0.30664
E153  E   0.69336  0.50000  0.69336
E154  E   0.69336  0.63673  0.36327
E155  E   0.69336  0.63673  0.63673
E156  E   0.69336  0.69336  0.50000
E157  E   0.69336  0.80664  0.00000
E158  E   0.69336  0.86327  0.13673
E159  E   0.69336  0.86327  0.86327
E160  E   0.75000  0.08009  0.25000
E161  E   0.75000  0.08009  0.75000
E162  E   0.75000  0.25000  0.08009
E163  E   0.75000  0.25000  0.41991
E164  E   0.75000  0.25000  0.58009
E165  E   0.75000  0.25000  0.91991
E166  E   0.75000  0.41991  0.25000
E167  E   0.75000  0.41991  0.75000
E168  E   0.75000  0.58009  0.25000
E169  E   0.75000  0.58009  0.75000
E170  E   0.75000  0.75000  0.08009
E171  E   0.75000  0.75000  0.41991
E172  E   0.75000  0.75000  0.58009
E173  E   0.75000  0.75000  0.91991
E174  E   0.75000  0.91991  0.25000
E175  E   0.75000  0.91991  0.75000
E176  E   0.80664  0.00000  0.30664
E177  E   0.80664  0.00000  0.69336
E178  E   0.80664  0.13673  0.36327
E179  E   0.80664  0.13673  0.63673
E180  E   0.80664  0.19336  0.50000
E181  E   0.80664  0.19336  0.50000
E182  E   0.80664  0.30664  0.00000
E183  E   0.80664  0.36327  0.13673
E184  E   0.80664  0.36327  0.86327
E185  E   0.80664  0.50000  0.19336
E186  E   0.80664  0.50000  0.19336
E187  E   0.80664  0.50000  0.80664
E188  E   0.80664  0.63673  0.13673
E189  E   0.80664  0.63673  0.86327
E190  E   0.80664  0.69336  0.00000
E191  E   0.80664  0.80664  0.50000
E192  E   0.80664  0.86327  0.36327
E193  E   0.80664  0.86327  0.63673
E194  E   0.86327  0.13673  0.30664
E195  E   0.86327  0.13673  0.69336
E196  E   0.86327  0.19336  0.36327
E197  E   0.86327  0.19336  0.63673
E198  E   0.86327  0.30664  0.13673
E199  E   0.86327  0.30664  0.86327
E200  E   0.86327  0.36327  0.19336
E201  E   0.86327  0.36327  0.80664
E202  E   0.86327  0.63673  0.19336
E203  E   0.86327  0.63673  0.80664
E204  E   0.86327  0.69336  0.13673
E205  E   0.86327  0.69336  0.86327
E206  E   0.86327  0.80664  0.36327
E207  E   0.86327  0.80664  0.63673
E208  E   0.86327  0.86327  0.30664
E209  E   0.86327  0.86327  0.69336
E210  E   0.91991  0.25000  0.25000
E211  E   0.91991  0.25000  0.75000
E212  E   0.91991  0.75000  0.25000
E213  E   0.91991  0.75000  0.75000
loop_
