data_hbm_P4/mmm  hall_number: 400, V_con: 4, EC_con: 4
_audit_creation_date              2025-03-05
_audit_creation_method            'MOFbuilder_1.0'
_symmetry_space_group_name_H-M    'P1'
_symmetry_Int_Tables_number       1
_symmetry_cell_setting            triclinic
loop_
_symmetry_equiv_pos_as_xyz
  x,y,z
_cell_length_a                    36.9465
_cell_length_b                    36.9465
_cell_length_c                    15.374
_cell_angle_alpha                 90.0
_cell_angle_beta                  90.0
_cell_angle_gamma                 90.0
loop_
_atom_site_label
_atom_site_type_symbol
_atom_site_fract_x
_atom_site_fract_y
_atom_site_fract_z
V1    V   0.17290  0.36464  0.00000
V2    V   0.17290  0.63536  0.00000
V3    V   0.36464  0.17290  0.00000
V4    V   0.36464  0.82710  0.00000
V5    V   0.63536  0.17290  0.00000
V6    V   0.63536  0.82710  0.00000
V7    V   0.82710  0.36464  0.00000
V8    V   0.82710  0.63536  0.00000
EC1    EC   0.00000  0.36453  0.50000
EC2    EC   0.00000  0.63547  0.50000
EC3    EC   0.36453  0.00000  0.50000
EC4    EC   0.63547  0.00000  0.50000
E1    E   0.08645  0.36458  0.25000
E2    E   0.08645  0.36458  0.75000
E3    E   0.08645  0.63542  0.25000
E4    E   0.08645  0.63542  0.75000
E5    E   0.17290  0.50000  0.00000
E6    E   0.26877  0.26877  0.00000
E7    E   0.26877  0.73123  0.00000
E8    E   0.36458  0.08645  0.25000
E9    E   0.36458  0.08645  0.75000
E10   E   0.36458  0.91355  0.25000
E11   E   0.36458  0.91355  0.75000
E12   E   0.50000  0.17290  0.00000
E13   E   0.50000  0.82710  0.00000
E14   E   0.63542  0.08645  0.25000
E15   E   0.63542  0.08645  0.75000
E16   E   0.63542  0.91355  0.25000
E17   E   0.63542  0.91355  0.75000
E18   E   0.73123  0.26877  0.00000
E19   E   0.73123  0.73123  0.00000
E20   E   0.82710  0.50000  0.00000
E21   E   0.91355  0.36458  0.25000
E22   E   0.91355  0.36458  0.75000
E23   E   0.91355  0.63542  0.25000
E24   E   0.91355  0.63542  0.75000
loop_
