data_hbr_P6/mmm  hall_number: 485, V_con: 8, EC_con: 8
_audit_creation_date              2025-03-05
_audit_creation_method            'MOFbuilder_1.0'
_symmetry_space_group_name_H-M    'P1'
_symmetry_Int_Tables_number       1
_symmetry_cell_setting            triclinic
loop_
_symmetry_equiv_pos_as_xyz
  x,y,z
_cell_length_a                    27.320700000000002
_cell_length_b                    27.320700000000002
_cell_length_c                    14.142
_cell_angle_alpha                 90.0
_cell_angle_beta                  90.0
_cell_angle_gamma                 120.0
loop_
_atom_site_label
_atom_site_type_symbol
_atom_site_fract_x
_atom_site_fract_y
_atom_site_fract_z
V1    V   0.21132  0.42265  0.00000
V2    V   0.21132  0.78867  0.00000
V3    V   0.21133  0.42265  0.00000
V4    V   0.21133  0.78868  0.00000
V5    V   0.42265  0.21132  0.00000
V6    V   0.42265  0.21133  0.00000
V7    V   0.57735  0.78867  0.00000
V8    V   0.57735  0.78868  0.00000
V9    V   0.78867  0.21132  0.00000
V10   V   0.78867  0.57735  0.00000
V11   V   0.78868  0.21133  0.00000
V12   V   0.78868  0.57735  0.00000
EC1    EC   0.00000  0.50000  0.50000
EC2    EC   0.50000  0.00000  0.50000
EC3    EC   0.50000  0.50000  0.50000
E1    E   0.00000  0.31699  0.00000
E2    E   0.00000  0.68301  0.00000
E3    E   0.10566  0.46133  0.25000
E4    E   0.10566  0.46133  0.75000
E5    E   0.10566  0.64433  0.25000
E6    E   0.10566  0.64433  0.75000
E7    E   0.21133  0.60566  0.00000
E8    E   0.21133  0.60567  0.00000
E9    E   0.31699  0.00000  0.00000
E10   E   0.31699  0.31699  0.00000
E11   E   0.35567  0.46133  0.25000
E12   E   0.35567  0.46133  0.75000
E13   E   0.35567  0.89434  0.25000
E14   E   0.35567  0.89434  0.75000
E15   E   0.39433  0.60566  0.00000
E16   E   0.39433  0.78867  0.00000
E17   E   0.39434  0.60567  0.00000
E18   E   0.39434  0.78867  0.00000
E19   E   0.46133  0.10566  0.25000
E20   E   0.46133  0.10566  0.75000
E21   E   0.46133  0.35567  0.25000
E22   E   0.46133  0.35567  0.75000
E23   E   0.53867  0.64433  0.25000
E24   E   0.53867  0.64433  0.75000
E25   E   0.53867  0.89434  0.25000
E26   E   0.53867  0.89434  0.75000
E27   E   0.60566  0.21133  0.00000
E28   E   0.60566  0.39433  0.00000
E29   E   0.60567  0.21133  0.00000
E30   E   0.60567  0.39434  0.00000
E31   E   0.64433  0.10566  0.25000
E32   E   0.64433  0.10566  0.75000
E33   E   0.64433  0.53867  0.25000
E34   E   0.64433  0.53867  0.75000
E35   E   0.68301  0.00000  0.00000
E36   E   0.68301  0.68301  0.00000
E37   E   0.78867  0.39433  0.00000
E38   E   0.78867  0.39434  0.00000
E39   E   0.89434  0.35567  0.25000
E40   E   0.89434  0.35567  0.75000
E41   E   0.89434  0.53867  0.25000
E42   E   0.89434  0.53867  0.75000
loop_
