data_hcd_P3112  hall_number: 440, V_con: 7, EC_con: 7
_audit_creation_date              2025-03-05
_audit_creation_method            'MOFbuilder_1.0'
_symmetry_space_group_name_H-M    'P1'
_symmetry_Int_Tables_number       1
_symmetry_cell_setting            triclinic
loop_
_symmetry_equiv_pos_as_xyz
  x,y,z
_cell_length_a                    17.320500000000003
_cell_length_b                    17.320500000000003
_cell_length_c                    24.4949
_cell_angle_alpha                 90.0
_cell_angle_beta                  90.0
_cell_angle_gamma                 120.0
loop_
_atom_site_label
_atom_site_type_symbol
_atom_site_fract_x
_atom_site_fract_y
_atom_site_fract_z
V1    V   0.22223  0.11111  0.00000
V2    V   0.22223  0.11112  0.00000
V3    V   0.88888  0.11111  0.33333
V4    V   0.88888  0.77777  0.66667
V5    V   0.88889  0.11112  0.33333
V6    V   0.88889  0.77777  0.66667
EC1    EC   0.22222  0.44444  0.66667
EC2    EC   0.22222  0.77778  0.33333
EC3    EC   0.55556  0.77778  0.00000
E1    E   0.05555  0.11111  0.16666
E2    E   0.05555  0.11111  0.66667
E3    E   0.05555  0.27777  0.50000
E4    E   0.05555  0.44444  0.33333
E5    E   0.05555  0.61111  0.66667
E6    E   0.05555  0.77778  0.50000
E7    E   0.05555  0.94444  0.33333
E8    E   0.05555  0.94444  0.83334
E9    E   0.05556  0.11111  0.16667
E10   E   0.05556  0.11111  0.66667
E11   E   0.05556  0.94445  0.33333
E12   E   0.05556  0.94445  0.83333
E13   E   0.22222  0.27777  0.83333
E14   E   0.22222  0.94445  0.16667
E15   E   0.22222  0.61111  0.50000
E16   E   0.22222  0.61111  0.50000
E17   E   0.38889  0.61111  0.83334
E18   E   0.38889  0.77778  0.16666
E19   E   0.38889  0.44444  0.00000
E20   E   0.38889  0.61111  0.83333
E21   E   0.38889  0.77778  0.16667
E22   E   0.38889  0.94445  0.00000
E23   E   0.55556  0.61111  0.66667
E24   E   0.55556  0.94445  0.33333
E25   E   0.72223  0.77778  0.83334
E26   E   0.72223  0.94445  0.16666
E27   E   0.88889  0.94444  0.00000
E28   E   0.88889  0.94444  0.50000
E29   E   0.88889  0.94445  0.00000
E30   E   0.88889  0.94445  0.50000
loop_
