data_hck_C12/m1  hall_number: 71, V_con: 7, EC_con: 7
_audit_creation_date              2025-03-05
_audit_creation_method            'MOFbuilder_1.0'
_symmetry_space_group_name_H-M    'P1'
_symmetry_Int_Tables_number       1
_symmetry_cell_setting            triclinic
loop_
_symmetry_equiv_pos_as_xyz
  x,y,z
_cell_length_a                    18.321
_cell_length_b                    28.0213
_cell_length_c                    34.3241
_cell_angle_alpha                 90.0
_cell_angle_beta                  102.4579
_cell_angle_gamma                 90.0
loop_
_atom_site_label
_atom_site_type_symbol
_atom_site_fract_x
_atom_site_fract_y
_atom_site_fract_z
V1    V   0.09844  0.17844  0.37500
V2    V   0.09844  0.82156  0.62500
V3    V   0.40156  0.32156  0.12500
V4    V   0.40156  0.67844  0.87500
V5    V   0.59844  0.32156  0.12500
V6    V   0.59844  0.67844  0.87500
V7    V   0.90156  0.17844  0.37500
V8    V   0.90156  0.82156  0.62500
EC1    EC   0.19948  0.32157  0.12500
EC2    EC   0.19948  0.67843  0.87500
EC3    EC   0.30052  0.17843  0.37500
EC4    EC   0.30052  0.82157  0.62500
EC5    EC   0.69948  0.17843  0.37500
EC6    EC   0.69948  0.82157  0.62500
EC7    EC   0.80052  0.32157  0.12500
EC8    EC   0.80052  0.67843  0.87500
E1    E   0.00000  0.17844  0.50000
E2    E   0.00000  0.32157  0.00000
E3    E   0.00000  0.67843  0.00000
E4    E   0.00000  0.82156  0.50000
E5    E   0.05052  0.25000  0.12500
E6    E   0.05052  0.75000  0.87500
E7    E   0.09844  0.00000  0.37500
E8    E   0.09844  0.00000  0.62500
E9    E   0.10104  0.17844  0.25000
E10   E   0.10104  0.82156  0.75000
E11   E   0.14896  0.25000  0.25000
E12   E   0.14896  0.75000  0.75000
E13   E   0.15156  0.25000  0.37500
E14   E   0.15156  0.75000  0.62500
E15   E   0.19948  0.50000  0.12500
E16   E   0.19948  0.50000  0.87500
E17   E   0.25000  0.25000  0.00000
E18   E   0.25000  0.25000  0.50000
E19   E   0.25000  0.75000  0.00000
E20   E   0.25000  0.75000  0.50000
E21   E   0.30052  0.00000  0.37500
E22   E   0.30052  0.00000  0.62500
E23   E   0.34844  0.25000  0.12500
E24   E   0.34844  0.75000  0.87500
E25   E   0.35104  0.25000  0.25000
E26   E   0.35104  0.75000  0.75000
E27   E   0.39896  0.32156  0.25000
E28   E   0.39896  0.67844  0.75000
E29   E   0.40156  0.50000  0.12500
E30   E   0.40156  0.50000  0.87500
E31   E   0.44948  0.25000  0.37500
E32   E   0.44948  0.75000  0.62500
E33   E   0.50000  0.17843  0.50000
E34   E   0.50000  0.32156  0.00000
E35   E   0.50000  0.67844  0.00000
E36   E   0.50000  0.82157  0.50000
E37   E   0.55052  0.25000  0.37500
E38   E   0.55052  0.75000  0.62500
E39   E   0.59844  0.50000  0.12500
E40   E   0.59844  0.50000  0.87500
E41   E   0.60104  0.32156  0.25000
E42   E   0.60104  0.67844  0.75000
E43   E   0.64896  0.25000  0.25000
E44   E   0.64896  0.75000  0.75000
E45   E   0.65156  0.25000  0.12500
E46   E   0.65156  0.75000  0.87500
E47   E   0.69948  0.00000  0.37500
E48   E   0.69948  0.00000  0.62500
E49   E   0.75000  0.25000  0.00000
E50   E   0.75000  0.25000  0.50000
E51   E   0.75000  0.75000  0.00000
E52   E   0.75000  0.75000  0.50000
E53   E   0.80052  0.50000  0.12500
E54   E   0.80052  0.50000  0.87500
E55   E   0.84844  0.25000  0.37500
E56   E   0.84844  0.75000  0.62500
E57   E   0.85104  0.25000  0.25000
E58   E   0.85104  0.75000  0.75000
E59   E   0.89896  0.17844  0.25000
E60   E   0.89896  0.82156  0.75000
E61   E   0.90156  0.00000  0.37500
E62   E   0.90156  0.00000  0.62500
E63   E   0.94948  0.25000  0.12500
E64   E   0.94948  0.75000  0.87500
loop_
