data_hee_Pm-3m  hall_number: 517, V_con: 3, EC_con: 3
_audit_creation_date              2025-03-05
_audit_creation_method            'MOFbuilder_1.0'
_symmetry_space_group_name_H-M    'P1'
_symmetry_Int_Tables_number       1
_symmetry_cell_setting            triclinic
loop_
_symmetry_equiv_pos_as_xyz
  x,y,z
_cell_length_a                    66.56819999999999
_cell_length_b                    66.56819999999999
_cell_length_c                    66.56819999999999
_cell_angle_alpha                 90.0
_cell_angle_beta                  90.0
_cell_angle_gamma                 90.0
loop_
_atom_site_label
_atom_site_type_symbol
_atom_site_fract_x
_atom_site_fract_y
_atom_site_fract_z
V1    V   0.10573  0.21196  0.31818
V2    V   0.10573  0.21196  0.68182
V3    V   0.10573  0.31818  0.21196
V4    V   0.10573  0.31818  0.78804
V5    V   0.10573  0.68182  0.21196
V6    V   0.10573  0.68182  0.78804
V7    V   0.10573  0.78804  0.31818
V8    V   0.10573  0.78804  0.68182
V9    V   0.21196  0.10573  0.31818
V10   V   0.21196  0.10573  0.68182
V11   V   0.21196  0.31818  0.10573
V12   V   0.21196  0.31818  0.89427
V13   V   0.21196  0.68182  0.10573
V14   V   0.21196  0.68182  0.89427
V15   V   0.21196  0.89427  0.31818
V16   V   0.21196  0.89427  0.68182
V17   V   0.31818  0.10573  0.21196
V18   V   0.31818  0.10573  0.78804
V19   V   0.31818  0.21196  0.10573
V20   V   0.31818  0.21196  0.89427
V21   V   0.31818  0.78804  0.10573
V22   V   0.31818  0.78804  0.89427
V23   V   0.31818  0.89427  0.21196
V24   V   0.31818  0.89427  0.78804
V25   V   0.68182  0.10573  0.21196
V26   V   0.68182  0.10573  0.78804
V27   V   0.68182  0.21196  0.10573
V28   V   0.68182  0.21196  0.89427
V29   V   0.68182  0.78804  0.10573
V30   V   0.68182  0.78804  0.89427
V31   V   0.68182  0.89427  0.21196
V32   V   0.68182  0.89427  0.78804
V33   V   0.78804  0.10573  0.31818
V34   V   0.78804  0.10573  0.68182
V35   V   0.78804  0.31818  0.10573
V36   V   0.78804  0.31818  0.89427
V37   V   0.78804  0.68182  0.10573
V38   V   0.78804  0.68182  0.89427
V39   V   0.78804  0.89427  0.31818
V40   V   0.78804  0.89427  0.68182
V41   V   0.89427  0.21196  0.31818
V42   V   0.89427  0.21196  0.68182
V43   V   0.89427  0.31818  0.21196
V44   V   0.89427  0.31818  0.78804
V45   V   0.89427  0.68182  0.21196
V46   V   0.89427  0.68182  0.78804
V47   V   0.89427  0.78804  0.31818
V48   V   0.89427  0.78804  0.68182
EC1    EC   0.00000  0.21164  0.42489
EC2    EC   0.00000  0.21164  0.57511
EC3    EC   0.00000  0.42489  0.21164
EC4    EC   0.00000  0.42489  0.78836
EC5    EC   0.00000  0.57511  0.21164
EC6    EC   0.00000  0.57511  0.78836
EC7    EC   0.00000  0.78836  0.42489
EC8    EC   0.00000  0.78836  0.57511
EC9    EC   0.21164  0.00000  0.42489
EC10   EC   0.21164  0.00000  0.57511
EC11   EC   0.21164  0.42489  0.00000
EC12   EC   0.21164  0.57511  0.00000
EC13   EC   0.42489  0.00000  0.21164
EC14   EC   0.42489  0.00000  0.78836
EC15   EC   0.42489  0.21164  0.00000
EC16   EC   0.42489  0.78836  0.00000
EC17   EC   0.57511  0.00000  0.21164
EC18   EC   0.57511  0.00000  0.78836
EC19   EC   0.57511  0.21164  0.00000
EC20   EC   0.57511  0.78836  0.00000
EC21   EC   0.78836  0.00000  0.42489
EC22   EC   0.78836  0.00000  0.57511
EC23   EC   0.78836  0.42489  0.00000
EC24   EC   0.78836  0.57511  0.00000
E1    E   0.00000  0.21164  0.50000
E2    E   0.00000  0.50000  0.21164
E3    E   0.00000  0.50000  0.78836
E4    E   0.00000  0.78836  0.50000
E5    E   0.05287  0.21180  0.37153
E6    E   0.05287  0.21180  0.62847
E7    E   0.05287  0.37153  0.21180
E8    E   0.05287  0.37153  0.78820
E9    E   0.05287  0.62847  0.21180
E10   E   0.05287  0.62847  0.78820
E11   E   0.05287  0.78820  0.37153
E12   E   0.05287  0.78820  0.62847
E13   E   0.10573  0.26507  0.26507
E14   E   0.10573  0.26507  0.73493
E15   E   0.10573  0.73493  0.26507
E16   E   0.10573  0.73493  0.73493
E17   E   0.15884  0.15884  0.31818
E18   E   0.15884  0.15884  0.68182
E19   E   0.15884  0.31818  0.15884
E20   E   0.15884  0.31818  0.84116
E21   E   0.15884  0.68182  0.15884
E22   E   0.15884  0.68182  0.84116
E23   E   0.15884  0.84116  0.31818
E24   E   0.15884  0.84116  0.68182
E25   E   0.21164  0.00000  0.50000
E26   E   0.21164  0.50000  0.00000
E27   E   0.21180  0.05287  0.37153
E28   E   0.21180  0.05287  0.62847
E29   E   0.21180  0.37153  0.05287
E30   E   0.21180  0.37153  0.94713
E31   E   0.21180  0.62847  0.05287
E32   E   0.21180  0.62847  0.94713
E33   E   0.21180  0.94713  0.37153
E34   E   0.21180  0.94713  0.62847
E35   E   0.26507  0.10573  0.26507
E36   E   0.26507  0.10573  0.73493
E37   E   0.26507  0.26507  0.10573
E38   E   0.26507  0.26507  0.89427
E39   E   0.26507  0.73493  0.10573
E40   E   0.26507  0.73493  0.89427
E41   E   0.26507  0.89427  0.26507
E42   E   0.26507  0.89427  0.73493
E43   E   0.31818  0.15884  0.15884
E44   E   0.31818  0.15884  0.84116
E45   E   0.31818  0.84116  0.15884
E46   E   0.31818  0.84116  0.84116
E47   E   0.37153  0.05287  0.21180
E48   E   0.37153  0.05287  0.78820
E49   E   0.37153  0.21180  0.05287
E50   E   0.37153  0.21180  0.94713
E51   E   0.37153  0.78820  0.05287
E52   E   0.37153  0.78820  0.94713
E53   E   0.37153  0.94713  0.21180
E54   E   0.37153  0.94713  0.78820
E55   E   0.50000  0.00000  0.21164
E56   E   0.50000  0.00000  0.78836
E57   E   0.50000  0.21164  0.00000
E58   E   0.50000  0.78836  0.00000
E59   E   0.62847  0.05287  0.21180
E60   E   0.62847  0.05287  0.78820
E61   E   0.62847  0.21180  0.05287
E62   E   0.62847  0.21180  0.94713
E63   E   0.62847  0.78820  0.05287
E64   E   0.62847  0.78820  0.94713
E65   E   0.62847  0.94713  0.21180
E66   E   0.62847  0.94713  0.78820
E67   E   0.68182  0.15884  0.15884
E68   E   0.68182  0.15884  0.84116
E69   E   0.68182  0.84116  0.15884
E70   E   0.68182  0.84116  0.84116
E71   E   0.73493  0.10573  0.26507
E72   E   0.73493  0.10573  0.73493
E73   E   0.73493  0.26507  0.10573
E74   E   0.73493  0.26507  0.89427
E75   E   0.73493  0.73493  0.10573
E76   E   0.73493  0.73493  0.89427
E77   E   0.73493  0.89427  0.26507
E78   E   0.73493  0.89427  0.73493
E79   E   0.78820  0.05287  0.37153
E80   E   0.78820  0.05287  0.62847
E81   E   0.78820  0.37153  0.05287
E82   E   0.78820  0.37153  0.94713
E83   E   0.78820  0.62847  0.05287
E84   E   0.78820  0.62847  0.94713
E85   E   0.78820  0.94713  0.37153
E86   E   0.78820  0.94713  0.62847
E87   E   0.78836  0.00000  0.50000
E88   E   0.78836  0.50000  0.00000
E89   E   0.84116  0.15884  0.31818
E90   E   0.84116  0.15884  0.68182
E91   E   0.84116  0.31818  0.15884
E92   E   0.84116  0.31818  0.84116
E93   E   0.84116  0.68182  0.15884
E94   E   0.84116  0.68182  0.84116
E95   E   0.84116  0.84116  0.31818
E96   E   0.84116  0.84116  0.68182
E97   E   0.89427  0.26507  0.26507
E98   E   0.89427  0.26507  0.73493
E99   E   0.89427  0.73493  0.26507
E100  E   0.89427  0.73493  0.73493
E101  E   0.94713  0.21180  0.37153
E102  E   0.94713  0.21180  0.62847
E103  E   0.94713  0.37153  0.21180
E104  E   0.94713  0.37153  0.78820
E105  E   0.94713  0.62847  0.21180
E106  E   0.94713  0.62847  0.78820
E107  E   0.94713  0.78820  0.37153
E108  E   0.94713  0.78820  0.62847
loop_
