data_hjm_C12/c1  hall_number: 107, V_con: 4
_audit_creation_date              2025-03-05
_audit_creation_method            'MOFbuilder_1.0'
_symmetry_space_group_name_H-M    'P1'
_symmetry_Int_Tables_number       1
_symmetry_cell_setting            triclinic
loop_
_symmetry_equiv_pos_as_xyz
  x,y,z
_cell_length_a                    14.1913
_cell_length_b                    10.392600000000002
_cell_length_c                    13.641399999999999
_cell_angle_alpha                 90.0
_cell_angle_beta                  92.3596
_cell_angle_gamma                 90.0
loop_
_atom_site_label
_atom_site_type_symbol
_atom_site_fract_x
_atom_site_fract_y
_atom_site_fract_z
V1    V   0.15626  0.14788  0.68451
V2    V   0.15626  0.35212  0.31549
V3    V   0.34374  0.14788  0.18451
V4    V   0.34374  0.35212  0.81549
V5    V   0.65626  0.64788  0.18451
V6    V   0.65626  0.85212  0.81549
V7    V   0.84374  0.64788  0.68451
V8    V   0.84374  0.85212  0.31549
E1    E   0.00000  0.00000  0.00000
E2    E   0.00000  0.00000  0.50000
E3    E   0.00000  0.14788  0.25000
E4    E   0.00000  0.35212  0.75000
E5    E   0.00000  0.50000  0.00000
E6    E   0.00000  0.50000  0.50000
E7    E   0.00000  0.64788  0.25000
E8    E   0.00000  0.85212  0.75000
E9    E   0.25000  0.75000  0.00000
E10   E   0.25000  0.75000  0.50000
E11   E   0.50000  0.00000  0.00000
E12   E   0.50000  0.00000  0.50000
E13   E   0.50000  0.14788  0.75000
E14   E   0.50000  0.35212  0.25000
E15   E   0.50000  0.50000  0.00000
E16   E   0.50000  0.50000  0.50000
E17   E   0.50000  0.64788  0.75000
E18   E   0.50000  0.85212  0.25000
E19   E   0.75000  0.25000  0.00000
E20   E   0.75000  0.25000  0.50000
loop_
