data_hwx_P42/mnm  hall_number: 419, V_con: 6, EC_con: 3
_audit_creation_date              2025-03-05
_audit_creation_method            'MOFbuilder_1.0'
_symmetry_space_group_name_H-M    'P1'
_symmetry_Int_Tables_number       1
_symmetry_cell_setting            triclinic
loop_
_symmetry_equiv_pos_as_xyz
  x,y,z
_cell_length_a                    33.3374
_cell_length_b                    33.3374
_cell_length_c                    14.903500000000001
_cell_angle_alpha                 90.0
_cell_angle_beta                  90.0
_cell_angle_gamma                 90.0
loop_
_atom_site_label
_atom_site_type_symbol
_atom_site_fract_x
_atom_site_fract_y
_atom_site_fract_z
V1    V   0.24978  0.24978  0.00000
V2    V   0.25022  0.74978  0.50000
V3    V   0.74978  0.25022  0.50000
V4    V   0.75022  0.75022  0.00000
EC1    EC   0.04975  0.24995  0.50000
EC2    EC   0.24995  0.04975  0.50000
EC3    EC   0.25005  0.54975  0.00000
EC4    EC   0.45025  0.74995  0.00000
EC5    EC   0.54975  0.25005  0.00000
EC6    EC   0.74995  0.45025  0.00000
EC7    EC   0.75005  0.95025  0.50000
EC8    EC   0.95025  0.75005  0.50000
E1    E   0.10023  0.74992  0.50000
E2    E   0.14977  0.24986  0.25000
E3    E   0.14977  0.24986  0.75000
E4    E   0.24986  0.14977  0.25000
E5    E   0.24986  0.14977  0.75000
E6    E   0.24992  0.39977  0.00000
E7    E   0.25008  0.89977  0.50000
E8    E   0.25014  0.64977  0.25000
E9    E   0.25014  0.64977  0.75000
E10   E   0.35023  0.74986  0.25000
E11   E   0.35023  0.74986  0.75000
E12   E   0.39977  0.24992  0.00000
E13   E   0.60023  0.75008  0.00000
E14   E   0.64977  0.25014  0.25000
E15   E   0.64977  0.25014  0.75000
E16   E   0.74986  0.35023  0.25000
E17   E   0.74986  0.35023  0.75000
E18   E   0.74992  0.10023  0.50000
E19   E   0.75008  0.60023  0.00000
E20   E   0.75014  0.85023  0.25000
E21   E   0.75014  0.85023  0.75000
E22   E   0.85023  0.75014  0.25000
E23   E   0.85023  0.75014  0.75000
E24   E   0.89977  0.25008  0.50000
loop_
