data_iac-a_Ia-3d  hall_number: 530, V_con: 5, EC_con: 4
_audit_creation_date              2025-03-05
_audit_creation_method            'MOFbuilder_1.0'
_symmetry_space_group_name_H-M    'P1'
_symmetry_Int_Tables_number       1
_symmetry_cell_setting            triclinic
loop_
_symmetry_equiv_pos_as_xyz
  x,y,z
_cell_length_a                    81.33359999999999
_cell_length_b                    81.33359999999999
_cell_length_c                    81.33359999999999
_cell_angle_alpha                 90.0
_cell_angle_beta                  90.0
_cell_angle_gamma                 90.0
loop_
_atom_site_label
_atom_site_type_symbol
_atom_site_fract_x
_atom_site_fract_y
_atom_site_fract_z
V1    V   0.01955  0.08069  0.52581
V2    V   0.01955  0.41931  0.02581
V3    V   0.01955  0.58069  0.47419
V4    V   0.01955  0.91931  0.97419
V5    V   0.02581  0.01955  0.41931
V6    V   0.02581  0.48045  0.91931
V7    V   0.02581  0.51955  0.58069
V8    V   0.02581  0.98045  0.08069
V9    V   0.08069  0.02581  0.98045
V10   V   0.08069  0.47419  0.48045
V11   V   0.08069  0.52581  0.01955
V12   V   0.08069  0.97419  0.51955
V13   V   0.16931  0.23045  0.72419
V14   V   0.16931  0.26955  0.22419
V15   V   0.16931  0.73045  0.27581
V16   V   0.16931  0.76955  0.77581
V17   V   0.22419  0.16931  0.26955
V18   V   0.22419  0.33069  0.76955
V19   V   0.22419  0.66931  0.73045
V20   V   0.22419  0.83069  0.23045
V21   V   0.23045  0.22419  0.83069
V22   V   0.23045  0.27581  0.33069
V23   V   0.23045  0.72419  0.16931
V24   V   0.23045  0.77581  0.66931
V25   V   0.26955  0.22419  0.16931
V26   V   0.26955  0.27581  0.66931
V27   V   0.26955  0.72419  0.83069
V28   V   0.26955  0.77581  0.33069
V29   V   0.27581  0.16931  0.73045
V30   V   0.27581  0.33069  0.23045
V31   V   0.27581  0.66931  0.26955
V32   V   0.27581  0.83069  0.76955
V33   V   0.33069  0.23045  0.27581
V34   V   0.33069  0.26955  0.77581
V35   V   0.33069  0.73045  0.72419
V36   V   0.33069  0.76955  0.22419
V37   V   0.41931  0.02581  0.01955
V38   V   0.41931  0.47419  0.51955
V39   V   0.41931  0.52581  0.98045
V40   V   0.41931  0.97419  0.48045
V41   V   0.47419  0.01955  0.58069
V42   V   0.47419  0.48045  0.08069
V43   V   0.47419  0.51955  0.41931
V44   V   0.47419  0.98045  0.91931
V45   V   0.48045  0.08069  0.47419
V46   V   0.48045  0.41931  0.97419
V47   V   0.48045  0.58069  0.52581
V48   V   0.48045  0.91931  0.02581
V49   V   0.51955  0.08069  0.97419
V50   V   0.51955  0.41931  0.47419
V51   V   0.51955  0.58069  0.02581
V52   V   0.51955  0.91931  0.52581
V53   V   0.52581  0.01955  0.08069
V54   V   0.52581  0.48045  0.58069
V55   V   0.52581  0.51955  0.91931
V56   V   0.52581  0.98045  0.41931
V57   V   0.58069  0.02581  0.51955
V58   V   0.58069  0.47419  0.01955
V59   V   0.58069  0.52581  0.48045
V60   V   0.58069  0.97419  0.98045
V61   V   0.66931  0.23045  0.77581
V62   V   0.66931  0.26955  0.27581
V63   V   0.66931  0.73045  0.22419
V64   V   0.66931  0.76955  0.72419
V65   V   0.72419  0.16931  0.23045
V66   V   0.72419  0.33069  0.73045
V67   V   0.72419  0.66931  0.76955
V68   V   0.72419  0.83069  0.26955
V69   V   0.73045  0.22419  0.66931
V70   V   0.73045  0.27581  0.16931
V71   V   0.73045  0.72419  0.33069
V72   V   0.73045  0.77581  0.83069
V73   V   0.76955  0.22419  0.33069
V74   V   0.76955  0.27581  0.83069
V75   V   0.76955  0.72419  0.66931
V76   V   0.76955  0.77581  0.16931
V77   V   0.77581  0.16931  0.76955
V78   V   0.77581  0.33069  0.26955
V79   V   0.77581  0.66931  0.23045
V80   V   0.77581  0.83069  0.73045
V81   V   0.83069  0.23045  0.22419
V82   V   0.83069  0.26955  0.72419
V83   V   0.83069  0.73045  0.77581
V84   V   0.83069  0.76955  0.27581
V85   V   0.91931  0.02581  0.48045
V86   V   0.91931  0.47419  0.98045
V87   V   0.91931  0.52581  0.51955
V88   V   0.91931  0.97419  0.01955
V89   V   0.97419  0.01955  0.91931
V90   V   0.97419  0.48045  0.41931
V91   V   0.97419  0.51955  0.08069
V92   V   0.97419  0.98045  0.58069
V93   V   0.98045  0.08069  0.02581
V94   V   0.98045  0.41931  0.52581
V95   V   0.98045  0.58069  0.97419
V96   V   0.98045  0.91931  0.47419
EC1    EC   0.00000  0.18852  0.08153
EC2    EC   0.00000  0.18852  0.58153
EC3    EC   0.00000  0.31148  0.08153
EC4    EC   0.00000  0.31148  0.58153
EC5    EC   0.00000  0.68852  0.41847
EC6    EC   0.00000  0.68852  0.91847
EC7    EC   0.00000  0.81148  0.41847
EC8    EC   0.00000  0.81148  0.91847
EC9    EC   0.06148  0.25000  0.16847
EC10   EC   0.06148  0.25000  0.66847
EC11   EC   0.06148  0.75000  0.33153
EC12   EC   0.06148  0.75000  0.83153
EC13   EC   0.08153  0.00000  0.18852
EC14   EC   0.08153  0.00000  0.31148
EC15   EC   0.08153  0.50000  0.68852
EC16   EC   0.08153  0.50000  0.81148
EC17   EC   0.16847  0.06148  0.25000
EC18   EC   0.16847  0.43852  0.75000
EC19   EC   0.16847  0.56148  0.75000
EC20   EC   0.16847  0.93852  0.25000
EC21   EC   0.18852  0.08153  0.00000
EC22   EC   0.18852  0.41847  0.50000
EC23   EC   0.18852  0.58153  0.00000
EC24   EC   0.18852  0.91847  0.50000
EC25   EC   0.25000  0.16847  0.06148
EC26   EC   0.25000  0.16847  0.93852
EC27   EC   0.25000  0.33153  0.43852
EC28   EC   0.25000  0.33153  0.56148
EC29   EC   0.25000  0.66847  0.06148
EC30   EC   0.25000  0.66847  0.93852
EC31   EC   0.25000  0.83153  0.43852
EC32   EC   0.25000  0.83153  0.56148
EC33   EC   0.31148  0.08153  0.00000
EC34   EC   0.31148  0.41847  0.50000
EC35   EC   0.31148  0.58153  0.00000
EC36   EC   0.31148  0.91847  0.50000
EC37   EC   0.33153  0.06148  0.75000
EC38   EC   0.33153  0.43852  0.25000
EC39   EC   0.33153  0.56148  0.25000
EC40   EC   0.33153  0.93852  0.75000
EC41   EC   0.41847  0.00000  0.68852
EC42   EC   0.41847  0.00000  0.81148
EC43   EC   0.41847  0.50000  0.18852
EC44   EC   0.41847  0.50000  0.31148
EC45   EC   0.43852  0.25000  0.33153
EC46   EC   0.43852  0.25000  0.83153
EC47   EC   0.43852  0.75000  0.16847
EC48   EC   0.43852  0.75000  0.66847
EC49   EC   0.50000  0.18852  0.41847
EC50   EC   0.50000  0.18852  0.91847
EC51   EC   0.50000  0.31148  0.41847
EC52   EC   0.50000  0.31148  0.91847
EC53   EC   0.50000  0.68852  0.08153
EC54   EC   0.50000  0.68852  0.58153
EC55   EC   0.50000  0.81148  0.08153
EC56   EC   0.50000  0.81148  0.58153
EC57   EC   0.56148  0.25000  0.33153
EC58   EC   0.56148  0.25000  0.83153
EC59   EC   0.56148  0.75000  0.16847
EC60   EC   0.56148  0.75000  0.66847
EC61   EC   0.58153  0.00000  0.18852
EC62   EC   0.58153  0.00000  0.31148
EC63   EC   0.58153  0.50000  0.68852
EC64   EC   0.58153  0.50000  0.81148
EC65   EC   0.66847  0.06148  0.25000
EC66   EC   0.66847  0.43852  0.75000
EC67   EC   0.66847  0.56148  0.75000
EC68   EC   0.66847  0.93852  0.25000
EC69   EC   0.68852  0.08153  0.50000
EC70   EC   0.68852  0.41847  0.00000
EC71   EC   0.68852  0.58153  0.50000
EC72   EC   0.68852  0.91847  0.00000
EC73   EC   0.75000  0.16847  0.43852
EC74   EC   0.75000  0.16847  0.56148
EC75   EC   0.75000  0.33153  0.06148
EC76   EC   0.75000  0.33153  0.93852
EC77   EC   0.75000  0.66847  0.43852
EC78   EC   0.75000  0.66847  0.56148
EC79   EC   0.75000  0.83153  0.06148
EC80   EC   0.75000  0.83153  0.93852
EC81   EC   0.81148  0.08153  0.50000
EC82   EC   0.81148  0.41847  0.00000
EC83   EC   0.81148  0.58153  0.50000
EC84   EC   0.81148  0.91847  0.00000
EC85   EC   0.83153  0.06148  0.75000
EC86   EC   0.83153  0.43852  0.25000
EC87   EC   0.83153  0.56148  0.25000
EC88   EC   0.83153  0.93852  0.75000
EC89   EC   0.91847  0.00000  0.68852
EC90   EC   0.91847  0.00000  0.81148
EC91   EC   0.91847  0.50000  0.18852
EC92   EC   0.91847  0.50000  0.31148
EC93   EC   0.93852  0.25000  0.16847
EC94   EC   0.93852  0.25000  0.66847
EC95   EC   0.93852  0.75000  0.33153
EC96   EC   0.93852  0.75000  0.83153
E1    E   0.00000  0.25000  0.08153
E2    E   0.00000  0.25000  0.16847
E3    E   0.00000  0.25000  0.58153
E4    E   0.00000  0.25000  0.66847
E5    E   0.00000  0.75000  0.33153
E6    E   0.00000  0.75000  0.41847
E7    E   0.00000  0.75000  0.83153
E8    E   0.00000  0.75000  0.91847
E9    E   0.00313  0.03057  0.05325
E10   E   0.00313  0.46943  0.55325
E11   E   0.00313  0.53057  0.94675
E12   E   0.00313  0.96943  0.44675
E13   E   0.00978  0.13461  0.55367
E14   E   0.00978  0.36539  0.05367
E15   E   0.00978  0.63461  0.44633
E16   E   0.00978  0.86539  0.94633
E17   E   0.02268  0.05012  0.47256
E18   E   0.02268  0.44988  0.97256
E19   E   0.02268  0.55012  0.52744
E20   E   0.02268  0.94988  0.02744
E21   E   0.02744  0.02268  0.94988
E22   E   0.02744  0.47732  0.44988
E23   E   0.02744  0.52268  0.05012
E24   E   0.02744  0.97732  0.55012
E25   E   0.03057  0.05325  0.00313
E26   E   0.03057  0.44675  0.50313
E27   E   0.03057  0.55325  0.99687
E28   E   0.03057  0.94675  0.49687
E29   E   0.03074  0.21926  0.12500
E30   E   0.03074  0.21926  0.62500
E31   E   0.03074  0.28074  0.12500
E32   E   0.03074  0.28074  0.62500
E33   E   0.03074  0.71926  0.37500
E34   E   0.03074  0.71926  0.87500
E35   E   0.03074  0.78074  0.37500
E36   E   0.03074  0.78074  0.87500
E37   E   0.03074  0.21926  0.12500
E38   E   0.03074  0.21926  0.62500
E39   E   0.03074  0.28074  0.12500
E40   E   0.03074  0.28074  0.62500
E41   E   0.03074  0.71926  0.37500
E42   E   0.03074  0.71926  0.87500
E43   E   0.03074  0.78074  0.37500
E44   E   0.03074  0.78074  0.87500
E45   E   0.05012  0.02744  0.52268
E46   E   0.05012  0.47256  0.02268
E47   E   0.05012  0.52744  0.47732
E48   E   0.05012  0.97256  0.97732
E49   E   0.05325  0.00313  0.03057
E50   E   0.05325  0.49687  0.53057
E51   E   0.05325  0.50313  0.96943
E52   E   0.05325  0.99687  0.46943
E53   E   0.05367  0.00978  0.36539
E54   E   0.05367  0.49022  0.86539
E55   E   0.05367  0.50978  0.63461
E56   E   0.05367  0.99022  0.13461
E57   E   0.08153  0.00000  0.25000
E58   E   0.08153  0.50000  0.75000
E59   E   0.11539  0.24022  0.69633
E60   E   0.11539  0.25978  0.19633
E61   E   0.11539  0.74022  0.30367
E62   E   0.11539  0.75978  0.80367
E63   E   0.12500  0.03074  0.21926
E64   E   0.12500  0.03074  0.28074
E65   E   0.12500  0.03074  0.21926
E66   E   0.12500  0.03074  0.28074
E67   E   0.12500  0.46926  0.71926
E68   E   0.12500  0.46926  0.78074
E69   E   0.12500  0.53074  0.71926
E70   E   0.12500  0.53074  0.78074
E71   E   0.12500  0.96926  0.21926
E72   E   0.12500  0.96926  0.28074
E73   E   0.13461  0.05367  0.99022
E74   E   0.13461  0.44633  0.49022
E75   E   0.13461  0.55367  0.00978
E76   E   0.13461  0.94633  0.50978
E77   E   0.16847  0.00000  0.25000
E78   E   0.16847  0.50000  0.75000
E79   E   0.19633  0.11539  0.25978
E80   E   0.19633  0.38461  0.75978
E81   E   0.19633  0.61539  0.74022
E82   E   0.19633  0.88461  0.24022
E83   E   0.19675  0.21943  0.24687
E84   E   0.19675  0.28057  0.74687
E85   E   0.19675  0.71943  0.75313
E86   E   0.19675  0.78057  0.25313
E87   E   0.19988  0.22732  0.77744
E88   E   0.19988  0.27268  0.27744
E89   E   0.19988  0.72732  0.22256
E90   E   0.19988  0.77268  0.72256
E91   E   0.21926  0.12500  0.03074
E92   E   0.21926  0.12500  0.03074
E93   E   0.21926  0.12500  0.96926
E94   E   0.21926  0.37500  0.46926
E95   E   0.21926  0.37500  0.53074
E96   E   0.21926  0.62500  0.03074
E97   E   0.21926  0.62500  0.03074
E98   E   0.21926  0.62500  0.96926
E99   E   0.21926  0.87500  0.46926
E100  E   0.21926  0.87500  0.53074
E101  E   0.21943  0.24687  0.19675
E102  E   0.21943  0.25313  0.69675
E103  E   0.21943  0.74687  0.80325
E104  E   0.21943  0.75313  0.30325
E105  E   0.22256  0.19988  0.72732
E106  E   0.22256  0.30012  0.22732
E107  E   0.22256  0.69988  0.27268
E108  E   0.22256  0.80012  0.77268
E109  E   0.22732  0.22256  0.30012
E110  E   0.22732  0.27744  0.80012
E111  E   0.22732  0.72256  0.69988
E112  E   0.22732  0.77744  0.19988
E113  E   0.24022  0.19633  0.88461
E114  E   0.24022  0.30367  0.38461
E115  E   0.24022  0.69633  0.11539
E116  E   0.24022  0.80367  0.61539
E117  E   0.24687  0.19675  0.21943
E118  E   0.24687  0.30325  0.71943
E119  E   0.24687  0.69675  0.78057
E120  E   0.24687  0.80325  0.28057
E121  E   0.25000  0.08153  0.00000
E122  E   0.25000  0.16847  0.00000
E123  E   0.25000  0.33153  0.50000
E124  E   0.25000  0.41847  0.50000
E125  E   0.25000  0.58153  0.00000
E126  E   0.25000  0.66847  0.00000
E127  E   0.25000  0.83153  0.50000
E128  E   0.25000  0.91847  0.50000
E129  E   0.25313  0.19675  0.78057
E130  E   0.25313  0.30325  0.28057
E131  E   0.25313  0.69675  0.21943
E132  E   0.25313  0.80325  0.71943
E133  E   0.25978  0.19633  0.11539
E134  E   0.25978  0.30367  0.61539
E135  E   0.25978  0.69633  0.88461
E136  E   0.25978  0.80367  0.38461
E137  E   0.27268  0.22256  0.69988
E138  E   0.27268  0.27744  0.19988
E139  E   0.27268  0.72256  0.30012
E140  E   0.27268  0.77744  0.80012
E141  E   0.27744  0.19988  0.27268
E142  E   0.27744  0.30012  0.77268
E143  E   0.27744  0.69988  0.72732
E144  E   0.27744  0.80012  0.22732
E145  E   0.28057  0.24687  0.80325
E146  E   0.28057  0.25313  0.30325
E147  E   0.28057  0.74687  0.19675
E148  E   0.28057  0.75313  0.69675
E149  E   0.28074  0.12500  0.03074
E150  E   0.28074  0.12500  0.03074
E151  E   0.28074  0.12500  0.96926
E152  E   0.28074  0.37500  0.46926
E153  E   0.28074  0.37500  0.53074
E154  E   0.28074  0.62500  0.03074
E155  E   0.28074  0.62500  0.03074
E156  E   0.28074  0.62500  0.96926
E157  E   0.28074  0.87500  0.46926
E158  E   0.28074  0.87500  0.53074
E159  E   0.30012  0.22732  0.22256
E160  E   0.30012  0.27268  0.72256
E161  E   0.30012  0.72732  0.77744
E162  E   0.30012  0.77268  0.27744
E163  E   0.30325  0.21943  0.75313
E164  E   0.30325  0.28057  0.25313
E165  E   0.30325  0.71943  0.24687
E166  E   0.30325  0.78057  0.74687
E167  E   0.30367  0.11539  0.74022
E168  E   0.30367  0.38461  0.24022
E169  E   0.30367  0.61539  0.25978
E170  E   0.30367  0.88461  0.75978
E171  E   0.33153  0.00000  0.75000
E172  E   0.33153  0.50000  0.25000
E173  E   0.36539  0.05367  0.00978
E174  E   0.36539  0.44633  0.50978
E175  E   0.36539  0.55367  0.99022
E176  E   0.36539  0.94633  0.49022
E177  E   0.37500  0.03074  0.71926
E178  E   0.37500  0.03074  0.78074
E179  E   0.37500  0.03074  0.71926
E180  E   0.37500  0.03074  0.78074
E181  E   0.37500  0.46926  0.21926
E182  E   0.37500  0.46926  0.28074
E183  E   0.37500  0.53074  0.21926
E184  E   0.37500  0.53074  0.28074
E185  E   0.37500  0.96926  0.71926
E186  E   0.37500  0.96926  0.78074
E187  E   0.38461  0.24022  0.30367
E188  E   0.38461  0.25978  0.80367
E189  E   0.38461  0.74022  0.69633
E190  E   0.38461  0.75978  0.19633
E191  E   0.41847  0.00000  0.75000
E192  E   0.41847  0.50000  0.25000
E193  E   0.44633  0.00978  0.63461
E194  E   0.44633  0.49022  0.13461
E195  E   0.44633  0.50978  0.36539
E196  E   0.44633  0.99022  0.86539
E197  E   0.44675  0.00313  0.96943
E198  E   0.44675  0.49687  0.46943
E199  E   0.44675  0.50313  0.03057
E200  E   0.44675  0.99687  0.53057
E201  E   0.44988  0.02744  0.47732
E202  E   0.44988  0.47256  0.97732
E203  E   0.44988  0.52744  0.52268
E204  E   0.44988  0.97256  0.02268
E205  E   0.46926  0.21926  0.37500
E206  E   0.46926  0.21926  0.87500
E207  E   0.46926  0.28074  0.37500
E208  E   0.46926  0.28074  0.87500
E209  E   0.46926  0.71926  0.12500
E210  E   0.46926  0.71926  0.62500
E211  E   0.46926  0.78074  0.12500
E212  E   0.46926  0.78074  0.62500
E213  E   0.46943  0.05325  0.99687
E214  E   0.46943  0.44675  0.49687
E215  E   0.46943  0.55325  0.00313
E216  E   0.46943  0.94675  0.50313
E217  E   0.47256  0.02268  0.05012
E218  E   0.47256  0.47732  0.55012
E219  E   0.47256  0.52268  0.94988
E220  E   0.47256  0.97732  0.44988
E221  E   0.47732  0.05012  0.52744
E222  E   0.47732  0.44988  0.02744
E223  E   0.47732  0.55012  0.47256
E224  E   0.47732  0.94988  0.97256
E225  E   0.49022  0.13461  0.44633
E226  E   0.49022  0.36539  0.94633
E227  E   0.49022  0.63461  0.55367
E228  E   0.49022  0.86539  0.05367
E229  E   0.49687  0.03057  0.94675
E230  E   0.49687  0.46943  0.44675
E231  E   0.49687  0.53057  0.05325
E232  E   0.49687  0.96943  0.55325
E233  E   0.50000  0.25000  0.33153
E234  E   0.50000  0.25000  0.41847
E235  E   0.50000  0.25000  0.83153
E236  E   0.50000  0.25000  0.91847
E237  E   0.50000  0.75000  0.08153
E238  E   0.50000  0.75000  0.16847
E239  E   0.50000  0.75000  0.58153
E240  E   0.50000  0.75000  0.66847
E241  E   0.50313  0.03057  0.44675
E242  E   0.50313  0.46943  0.94675
E243  E   0.50313  0.53057  0.55325
E244  E   0.50313  0.96943  0.05325
E245  E   0.50978  0.13461  0.94633
E246  E   0.50978  0.36539  0.44633
E247  E   0.50978  0.63461  0.05367
E248  E   0.50978  0.86539  0.55367
E249  E   0.52268  0.05012  0.02744
E250  E   0.52268  0.44988  0.52744
E251  E   0.52268  0.55012  0.97256
E252  E   0.52268  0.94988  0.47256
E253  E   0.52744  0.02268  0.55012
E254  E   0.52744  0.47732  0.05012
E255  E   0.52744  0.52268  0.44988
E256  E   0.52744  0.97732  0.94988
E257  E   0.53057  0.05325  0.49687
E258  E   0.53057  0.44675  0.99687
E259  E   0.53057  0.55325  0.50313
E260  E   0.53057  0.94675  0.00313
E261  E   0.53074  0.21926  0.37500
E262  E   0.53074  0.21926  0.87500
E263  E   0.53074  0.28074  0.37500
E264  E   0.53074  0.28074  0.87500
E265  E   0.53074  0.71926  0.12500
E266  E   0.53074  0.71926  0.62500
E267  E   0.53074  0.78074  0.12500
E268  E   0.53074  0.78074  0.62500
E269  E   0.55012  0.02744  0.97732
E270  E   0.55012  0.47256  0.47732
E271  E   0.55012  0.52744  0.02268
E272  E   0.55012  0.97256  0.52268
E273  E   0.55325  0.00313  0.46943
E274  E   0.55325  0.49687  0.96943
E275  E   0.55325  0.50313  0.53057
E276  E   0.55325  0.99687  0.03057
E277  E   0.55367  0.00978  0.13461
E278  E   0.55367  0.49022  0.63461
E279  E   0.55367  0.50978  0.86539
E280  E   0.55367  0.99022  0.36539
E281  E   0.58153  0.00000  0.25000
E282  E   0.58153  0.50000  0.75000
E283  E   0.61539  0.24022  0.80367
E284  E   0.61539  0.25978  0.30367
E285  E   0.61539  0.74022  0.19633
E286  E   0.61539  0.75978  0.69633
E287  E   0.62500  0.03074  0.21926
E288  E   0.62500  0.03074  0.28074
E289  E   0.62500  0.03074  0.21926
E290  E   0.62500  0.03074  0.28074
E291  E   0.62500  0.46926  0.71926
E292  E   0.62500  0.46926  0.78074
E293  E   0.62500  0.53074  0.71926
E294  E   0.62500  0.53074  0.78074
E295  E   0.62500  0.96926  0.21926
E296  E   0.62500  0.96926  0.28074
E297  E   0.63461  0.05367  0.50978
E298  E   0.63461  0.44633  0.00978
E299  E   0.63461  0.55367  0.49022
E300  E   0.63461  0.94633  0.99022
E301  E   0.66847  0.00000  0.25000
E302  E   0.66847  0.50000  0.75000
E303  E   0.69633  0.11539  0.24022
E304  E   0.69633  0.38461  0.74022
E305  E   0.69633  0.61539  0.75978
E306  E   0.69633  0.88461  0.25978
E307  E   0.69675  0.21943  0.25313
E308  E   0.69675  0.28057  0.75313
E309  E   0.69675  0.71943  0.74687
E310  E   0.69675  0.78057  0.24687
E311  E   0.69988  0.22732  0.72256
E312  E   0.69988  0.27268  0.22256
E313  E   0.69988  0.72732  0.27744
E314  E   0.69988  0.77268  0.77744
E315  E   0.71926  0.12500  0.46926
E316  E   0.71926  0.12500  0.53074
E317  E   0.71926  0.37500  0.03074
E318  E   0.71926  0.37500  0.03074
E319  E   0.71926  0.37500  0.96926
E320  E   0.71926  0.62500  0.46926
E321  E   0.71926  0.62500  0.53074
E322  E   0.71926  0.87500  0.03074
E323  E   0.71926  0.87500  0.03074
E324  E   0.71926  0.87500  0.96926
E325  E   0.71943  0.24687  0.30325
E326  E   0.71943  0.25313  0.80325
E327  E   0.71943  0.74687  0.69675
E328  E   0.71943  0.75313  0.19675
E329  E   0.72256  0.19988  0.77268
E330  E   0.72256  0.30012  0.27268
E331  E   0.72256  0.69988  0.22732
E332  E   0.72256  0.80012  0.72732
E333  E   0.72732  0.22256  0.19988
E334  E   0.72732  0.27744  0.69988
E335  E   0.72732  0.72256  0.80012
E336  E   0.72732  0.77744  0.30012
E337  E   0.74022  0.19633  0.61539
E338  E   0.74022  0.30367  0.11539
E339  E   0.74022  0.69633  0.38461
E340  E   0.74022  0.80367  0.88461
E341  E   0.74687  0.19675  0.28057
E342  E   0.74687  0.30325  0.78057
E343  E   0.74687  0.69675  0.71943
E344  E   0.74687  0.80325  0.21943
E345  E   0.75000  0.08153  0.50000
E346  E   0.75000  0.16847  0.50000
E347  E   0.75000  0.33153  0.00000
E348  E   0.75000  0.41847  0.00000
E349  E   0.75000  0.58153  0.50000
E350  E   0.75000  0.66847  0.50000
E351  E   0.75000  0.83153  0.00000
E352  E   0.75000  0.91847  0.00000
E353  E   0.75313  0.19675  0.71943
E354  E   0.75313  0.30325  0.21943
E355  E   0.75313  0.69675  0.28057
E356  E   0.75313  0.80325  0.78057
E357  E   0.75978  0.19633  0.38461
E358  E   0.75978  0.30367  0.88461
E359  E   0.75978  0.69633  0.61539
E360  E   0.75978  0.80367  0.11539
E361  E   0.77268  0.22256  0.80012
E362  E   0.77268  0.27744  0.30012
E363  E   0.77268  0.72256  0.19988
E364  E   0.77268  0.77744  0.69988
E365  E   0.77744  0.19988  0.22732
E366  E   0.77744  0.30012  0.72732
E367  E   0.77744  0.69988  0.77268
E368  E   0.77744  0.80012  0.27268
E369  E   0.78057  0.24687  0.69675
E370  E   0.78057  0.25313  0.19675
E371  E   0.78057  0.74687  0.30325
E372  E   0.78057  0.75313  0.80325
E373  E   0.78074  0.12500  0.46926
E374  E   0.78074  0.12500  0.53074
E375  E   0.78074  0.37500  0.03074
E376  E   0.78074  0.37500  0.03074
E377  E   0.78074  0.37500  0.96926
E378  E   0.78074  0.62500  0.46926
E379  E   0.78074  0.62500  0.53074
E380  E   0.78074  0.87500  0.03074
E381  E   0.78074  0.87500  0.03074
E382  E   0.78074  0.87500  0.96926
E383  E   0.80012  0.22732  0.27744
E384  E   0.80012  0.27268  0.77744
E385  E   0.80012  0.72732  0.72256
E386  E   0.80012  0.77268  0.22256
E387  E   0.80325  0.21943  0.74687
E388  E   0.80325  0.28057  0.24687
E389  E   0.80325  0.71943  0.25313
E390  E   0.80325  0.78057  0.75313
E391  E   0.80367  0.11539  0.75978
E392  E   0.80367  0.38461  0.25978
E393  E   0.80367  0.61539  0.24022
E394  E   0.80367  0.88461  0.74022
E395  E   0.83153  0.00000  0.75000
E396  E   0.83153  0.50000  0.25000
E397  E   0.86539  0.05367  0.49022
E398  E   0.86539  0.44633  0.99022
E399  E   0.86539  0.55367  0.50978
E400  E   0.86539  0.94633  0.00978
E401  E   0.87500  0.03074  0.71926
E402  E   0.87500  0.03074  0.78074
E403  E   0.87500  0.03074  0.71926
E404  E   0.87500  0.03074  0.78074
E405  E   0.87500  0.46926  0.21926
E406  E   0.87500  0.46926  0.28074
E407  E   0.87500  0.53074  0.21926
E408  E   0.87500  0.53074  0.28074
E409  E   0.87500  0.96926  0.71926
E410  E   0.87500  0.96926  0.78074
E411  E   0.88461  0.24022  0.19633
E412  E   0.88461  0.25978  0.69633
E413  E   0.88461  0.74022  0.80367
E414  E   0.88461  0.75978  0.30367
E415  E   0.91847  0.00000  0.75000
E416  E   0.91847  0.50000  0.25000
E417  E   0.94633  0.00978  0.86539
E418  E   0.94633  0.49022  0.36539
E419  E   0.94633  0.50978  0.13461
E420  E   0.94633  0.99022  0.63461
E421  E   0.94675  0.00313  0.53057
E422  E   0.94675  0.49687  0.03057
E423  E   0.94675  0.50313  0.46943
E424  E   0.94675  0.99687  0.96943
E425  E   0.94988  0.02744  0.02268
E426  E   0.94988  0.47256  0.52268
E427  E   0.94988  0.52744  0.97732
E428  E   0.94988  0.97256  0.47732
E429  E   0.96926  0.21926  0.12500
E430  E   0.96926  0.21926  0.62500
E431  E   0.96926  0.28074  0.12500
E432  E   0.96926  0.28074  0.62500
E433  E   0.96926  0.71926  0.37500
E434  E   0.96926  0.71926  0.87500
E435  E   0.96926  0.78074  0.37500
E436  E   0.96926  0.78074  0.87500
E437  E   0.96943  0.05325  0.50313
E438  E   0.96943  0.44675  0.00313
E439  E   0.96943  0.55325  0.49687
E440  E   0.96943  0.94675  0.99687
E441  E   0.97256  0.02268  0.44988
E442  E   0.97256  0.47732  0.94988
E443  E   0.97256  0.52268  0.55012
E444  E   0.97256  0.97732  0.05012
E445  E   0.97732  0.05012  0.97256
E446  E   0.97732  0.44988  0.47256
E447  E   0.97732  0.55012  0.02744
E448  E   0.97732  0.94988  0.52744
E449  E   0.99022  0.13461  0.05367
E450  E   0.99022  0.36539  0.55367
E451  E   0.99022  0.63461  0.94633
E452  E   0.99022  0.86539  0.44633
E453  E   0.99687  0.03057  0.55325
E454  E   0.99687  0.46943  0.05325
E455  E   0.99687  0.53057  0.44675
E456  E   0.99687  0.96943  0.94675
loop_
