data_iac-e_Ia-3d  hall_number: 530, V_con: 7
_audit_creation_date              2025-03-05
_audit_creation_method            'MOFbuilder_1.0'
_symmetry_space_group_name_H-M    'P1'
_symmetry_Int_Tables_number       1
_symmetry_cell_setting            triclinic
loop_
_symmetry_equiv_pos_as_xyz
  x,y,z
_cell_length_a                    45.6405
_cell_length_b                    45.6405
_cell_length_c                    45.6405
_cell_angle_alpha                 90.0
_cell_angle_beta                  90.0
_cell_angle_gamma                 90.0
loop_
_atom_site_label
_atom_site_type_symbol
_atom_site_fract_x
_atom_site_fract_y
_atom_site_fract_z
V1    V   0.02028  0.14862  0.53844
V2    V   0.02028  0.35138  0.03844
V3    V   0.02028  0.64862  0.46156
V4    V   0.02028  0.85138  0.96156
V5    V   0.03844  0.02028  0.35138
V6    V   0.03844  0.47972  0.85138
V7    V   0.03844  0.52028  0.64862
V8    V   0.03844  0.97972  0.14862
V9    V   0.10138  0.22972  0.71156
V10   V   0.10138  0.27028  0.21156
V11   V   0.10138  0.72972  0.28844
V12   V   0.10138  0.77028  0.78844
V13   V   0.14862  0.03844  0.97972
V14   V   0.14862  0.46156  0.47972
V15   V   0.14862  0.53844  0.02028
V16   V   0.14862  0.96156  0.52028
V17   V   0.21156  0.10138  0.27028
V18   V   0.21156  0.39862  0.77028
V19   V   0.21156  0.60138  0.72972
V20   V   0.21156  0.89862  0.22972
V21   V   0.22972  0.21156  0.89862
V22   V   0.22972  0.28844  0.39862
V23   V   0.22972  0.71156  0.10138
V24   V   0.22972  0.78844  0.60138
V25   V   0.27028  0.21156  0.10138
V26   V   0.27028  0.28844  0.60138
V27   V   0.27028  0.71156  0.89862
V28   V   0.27028  0.78844  0.39862
V29   V   0.28844  0.10138  0.72972
V30   V   0.28844  0.39862  0.22972
V31   V   0.28844  0.60138  0.27028
V32   V   0.28844  0.89862  0.77028
V33   V   0.35138  0.03844  0.02028
V34   V   0.35138  0.46156  0.52028
V35   V   0.35138  0.53844  0.97972
V36   V   0.35138  0.96156  0.47972
V37   V   0.39862  0.22972  0.28844
V38   V   0.39862  0.27028  0.78844
V39   V   0.39862  0.72972  0.71156
V40   V   0.39862  0.77028  0.21156
V41   V   0.46156  0.02028  0.64862
V42   V   0.46156  0.47972  0.14862
V43   V   0.46156  0.52028  0.35138
V44   V   0.46156  0.97972  0.85138
V45   V   0.47972  0.14862  0.46156
V46   V   0.47972  0.35138  0.96156
V47   V   0.47972  0.64862  0.53844
V48   V   0.47972  0.85138  0.03844
V49   V   0.52028  0.14862  0.96156
V50   V   0.52028  0.35138  0.46156
V51   V   0.52028  0.64862  0.03844
V52   V   0.52028  0.85138  0.53844
V53   V   0.53844  0.02028  0.14862
V54   V   0.53844  0.47972  0.64862
V55   V   0.53844  0.52028  0.85138
V56   V   0.53844  0.97972  0.35138
V57   V   0.60138  0.22972  0.78844
V58   V   0.60138  0.27028  0.28844
V59   V   0.60138  0.72972  0.21156
V60   V   0.60138  0.77028  0.71156
V61   V   0.64862  0.03844  0.52028
V62   V   0.64862  0.46156  0.02028
V63   V   0.64862  0.53844  0.47972
V64   V   0.64862  0.96156  0.97972
V65   V   0.71156  0.10138  0.22972
V66   V   0.71156  0.39862  0.72972
V67   V   0.71156  0.60138  0.77028
V68   V   0.71156  0.89862  0.27028
V69   V   0.72972  0.21156  0.60138
V70   V   0.72972  0.28844  0.10138
V71   V   0.72972  0.71156  0.39862
V72   V   0.72972  0.78844  0.89862
V73   V   0.77028  0.21156  0.39862
V74   V   0.77028  0.28844  0.89862
V75   V   0.77028  0.71156  0.60138
V76   V   0.77028  0.78844  0.10138
V77   V   0.78844  0.10138  0.77028
V78   V   0.78844  0.39862  0.27028
V79   V   0.78844  0.60138  0.22972
V80   V   0.78844  0.89862  0.72972
V81   V   0.85138  0.03844  0.47972
V82   V   0.85138  0.46156  0.97972
V83   V   0.85138  0.53844  0.52028
V84   V   0.85138  0.96156  0.02028
V85   V   0.89862  0.22972  0.21156
V86   V   0.89862  0.27028  0.71156
V87   V   0.89862  0.72972  0.78844
V88   V   0.89862  0.77028  0.28844
V89   V   0.96156  0.02028  0.85138
V90   V   0.96156  0.47972  0.35138
V91   V   0.96156  0.52028  0.14862
V92   V   0.96156  0.97972  0.64862
V93   V   0.97972  0.14862  0.03844
V94   V   0.97972  0.35138  0.53844
V95   V   0.97972  0.64862  0.96156
V96   V   0.97972  0.85138  0.46156
E1    E   0.00000  0.25000  0.03844
E2    E   0.00000  0.25000  0.21156
E3    E   0.00000  0.25000  0.53844
E4    E   0.00000  0.25000  0.71156
E5    E   0.00000  0.75000  0.28844
E6    E   0.00000  0.75000  0.46156
E7    E   0.00000  0.75000  0.78844
E8    E   0.00000  0.75000  0.96156
E9    E   0.00908  0.06417  0.09353
E10   E   0.00908  0.43583  0.59353
E11   E   0.00908  0.56417  0.90647
E12   E   0.00908  0.93583  0.40647
E13   E   0.02936  0.08445  0.44491
E14   E   0.02936  0.41555  0.94491
E15   E   0.02936  0.58445  0.55509
E16   E   0.02936  0.91555  0.05509
E17   E   0.03844  0.00000  0.25000
E18   E   0.03844  0.50000  0.75000
E19   E   0.04055  0.20945  0.12500
E20   E   0.04055  0.29055  0.62500
E21   E   0.04055  0.70945  0.87500
E22   E   0.04055  0.79055  0.37500
E23   E   0.04055  0.20945  0.12500
E24   E   0.04055  0.29055  0.62500
E25   E   0.04055  0.70945  0.87500
E26   E   0.04055  0.79055  0.37500
E27   E   0.05509  0.02936  0.91555
E28   E   0.05509  0.47064  0.41555
E29   E   0.05509  0.52936  0.08445
E30   E   0.05509  0.97064  0.58445
E31   E   0.06083  0.18917  0.62500
E32   E   0.06083  0.31083  0.12500
E33   E   0.06083  0.68917  0.37500
E34   E   0.06083  0.81083  0.87500
E35   E   0.06083  0.18917  0.62500
E36   E   0.06083  0.31083  0.12500
E37   E   0.06083  0.68917  0.37500
E38   E   0.06083  0.81083  0.87500
E39   E   0.06417  0.09353  0.00908
E40   E   0.06417  0.40647  0.50908
E41   E   0.06417  0.59353  0.99092
E42   E   0.06417  0.90647  0.49092
E43   E   0.08445  0.05509  0.52936
E44   E   0.08445  0.44491  0.02936
E45   E   0.08445  0.55509  0.47064
E46   E   0.08445  0.94491  0.97064
E47   E   0.09353  0.00908  0.06417
E48   E   0.09353  0.49092  0.56417
E49   E   0.09353  0.50908  0.93583
E50   E   0.09353  0.99092  0.43583
E51   E   0.12500  0.04055  0.20945
E52   E   0.12500  0.04055  0.20945
E53   E   0.12500  0.06083  0.31083
E54   E   0.12500  0.06083  0.31083
E55   E   0.12500  0.43917  0.81083
E56   E   0.12500  0.43917  0.81083
E57   E   0.12500  0.45945  0.70945
E58   E   0.12500  0.54055  0.79055
E59   E   0.12500  0.56083  0.68917
E60   E   0.12500  0.56083  0.68917
E61   E   0.12500  0.93917  0.18917
E62   E   0.12500  0.93917  0.18917
E63   E   0.12500  0.95945  0.29055
E64   E   0.15647  0.18583  0.24092
E65   E   0.15647  0.31417  0.74092
E66   E   0.15647  0.68583  0.75908
E67   E   0.15647  0.81417  0.25908
E68   E   0.16555  0.22064  0.80509
E69   E   0.16555  0.27936  0.30509
E70   E   0.16555  0.72064  0.19491
E71   E   0.16555  0.77936  0.69491
E72   E   0.18583  0.24092  0.15647
E73   E   0.18583  0.25908  0.65647
E74   E   0.18583  0.74092  0.84353
E75   E   0.18583  0.75908  0.34353
E76   E   0.18917  0.12500  0.93917
E77   E   0.18917  0.12500  0.93917
E78   E   0.18917  0.37500  0.43917
E79   E   0.18917  0.62500  0.06083
E80   E   0.18917  0.62500  0.06083
E81   E   0.18917  0.87500  0.56083
E82   E   0.18917  0.87500  0.56083
E83   E   0.19491  0.16555  0.72064
E84   E   0.19491  0.33445  0.22064
E85   E   0.19491  0.66555  0.27936
E86   E   0.19491  0.83445  0.77936
E87   E   0.20945  0.12500  0.04055
E88   E   0.20945  0.37500  0.54055
E89   E   0.20945  0.62500  0.95945
E90   E   0.20945  0.87500  0.45945
E91   E   0.20945  0.12500  0.04055
E92   E   0.20945  0.37500  0.54055
E93   E   0.20945  0.62500  0.95945
E94   E   0.20945  0.87500  0.45945
E95   E   0.21156  0.00000  0.25000
E96   E   0.21156  0.50000  0.75000
E97   E   0.22064  0.19491  0.33445
E98   E   0.22064  0.30509  0.83445
E99   E   0.22064  0.69491  0.66555
E100  E   0.22064  0.80509  0.16555
E101  E   0.24092  0.15647  0.18583
E102  E   0.24092  0.34353  0.68583
E103  E   0.24092  0.65647  0.81417
E104  E   0.24092  0.84353  0.31417
E105  E   0.25000  0.03844  0.00000
E106  E   0.25000  0.21156  0.00000
E107  E   0.25000  0.28844  0.50000
E108  E   0.25000  0.46156  0.50000
E109  E   0.25000  0.53844  0.00000
E110  E   0.25000  0.71156  0.00000
E111  E   0.25000  0.78844  0.50000
E112  E   0.25000  0.96156  0.50000
E113  E   0.25908  0.15647  0.81417
E114  E   0.25908  0.34353  0.31417
E115  E   0.25908  0.65647  0.18583
E116  E   0.25908  0.84353  0.68583
E117  E   0.27936  0.19491  0.66555
E118  E   0.27936  0.30509  0.16555
E119  E   0.27936  0.69491  0.33445
E120  E   0.27936  0.80509  0.83445
E121  E   0.28844  0.00000  0.75000
E122  E   0.28844  0.50000  0.25000
E123  E   0.29055  0.12500  0.95945
E124  E   0.29055  0.37500  0.45945
E125  E   0.29055  0.62500  0.04055
E126  E   0.29055  0.62500  0.04055
E127  E   0.29055  0.87500  0.54055
E128  E   0.30509  0.16555  0.27936
E129  E   0.30509  0.33445  0.77936
E130  E   0.30509  0.66555  0.72064
E131  E   0.30509  0.83445  0.22064
E132  E   0.31083  0.12500  0.06083
E133  E   0.31083  0.12500  0.06083
E134  E   0.31083  0.37500  0.56083
E135  E   0.31083  0.37500  0.56083
E136  E   0.31083  0.62500  0.93917
E137  E   0.31083  0.62500  0.93917
E138  E   0.31083  0.87500  0.43917
E139  E   0.31417  0.24092  0.84353
E140  E   0.31417  0.25908  0.34353
E141  E   0.31417  0.74092  0.15647
E142  E   0.31417  0.75908  0.65647
E143  E   0.33445  0.22064  0.19491
E144  E   0.33445  0.27936  0.69491
E145  E   0.33445  0.72064  0.80509
E146  E   0.33445  0.77936  0.30509
E147  E   0.34353  0.18583  0.75908
E148  E   0.34353  0.31417  0.25908
E149  E   0.34353  0.68583  0.24092
E150  E   0.34353  0.81417  0.74092
E151  E   0.37500  0.04055  0.79055
E152  E   0.37500  0.04055  0.79055
E153  E   0.37500  0.06083  0.68917
E154  E   0.37500  0.06083  0.68917
E155  E   0.37500  0.43917  0.18917
E156  E   0.37500  0.45945  0.29055
E157  E   0.37500  0.54055  0.20945
E158  E   0.37500  0.54055  0.20945
E159  E   0.37500  0.56083  0.31083
E160  E   0.37500  0.56083  0.31083
E161  E   0.37500  0.93917  0.81083
E162  E   0.37500  0.93917  0.81083
E163  E   0.37500  0.95945  0.70945
E164  E   0.40647  0.00908  0.93583
E165  E   0.40647  0.49092  0.43583
E166  E   0.40647  0.50908  0.06417
E167  E   0.40647  0.99092  0.56417
E168  E   0.41555  0.05509  0.47064
E169  E   0.41555  0.44491  0.97064
E170  E   0.41555  0.55509  0.52936
E171  E   0.41555  0.94491  0.02936
E172  E   0.43583  0.09353  0.99092
E173  E   0.43583  0.40647  0.49092
E174  E   0.43583  0.59353  0.00908
E175  E   0.43583  0.90647  0.50908
E176  E   0.43917  0.18917  0.37500
E177  E   0.43917  0.31083  0.87500
E178  E   0.43917  0.68917  0.62500
E179  E   0.43917  0.68917  0.62500
E180  E   0.43917  0.81083  0.12500
E181  E   0.43917  0.81083  0.12500
E182  E   0.44491  0.02936  0.08445
E183  E   0.44491  0.47064  0.58445
E184  E   0.44491  0.52936  0.91555
E185  E   0.44491  0.97064  0.41555
E186  E   0.45945  0.20945  0.87500
E187  E   0.45945  0.20945  0.87500
E188  E   0.45945  0.29055  0.37500
E189  E   0.45945  0.70945  0.12500
E190  E   0.45945  0.79055  0.62500
E191  E   0.46156  0.00000  0.75000
E192  E   0.46156  0.50000  0.25000
E193  E   0.47064  0.08445  0.55509
E194  E   0.47064  0.41555  0.05509
E195  E   0.47064  0.58445  0.44491
E196  E   0.47064  0.91555  0.94491
E197  E   0.49092  0.06417  0.90647
E198  E   0.49092  0.43583  0.40647
E199  E   0.49092  0.56417  0.09353
E200  E   0.49092  0.93583  0.59353
E201  E   0.50000  0.25000  0.28844
E202  E   0.50000  0.25000  0.46156
E203  E   0.50000  0.25000  0.78844
E204  E   0.50000  0.25000  0.96156
E205  E   0.50000  0.75000  0.03844
E206  E   0.50000  0.75000  0.21156
E207  E   0.50000  0.75000  0.53844
E208  E   0.50000  0.75000  0.71156
E209  E   0.50908  0.06417  0.40647
E210  E   0.50908  0.43583  0.90647
E211  E   0.50908  0.56417  0.59353
E212  E   0.50908  0.93583  0.09353
E213  E   0.52936  0.08445  0.05509
E214  E   0.52936  0.41555  0.55509
E215  E   0.52936  0.58445  0.94491
E216  E   0.52936  0.91555  0.44491
E217  E   0.53844  0.00000  0.25000
E218  E   0.53844  0.50000  0.75000
E219  E   0.54055  0.20945  0.37500
E220  E   0.54055  0.20945  0.37500
E221  E   0.54055  0.29055  0.87500
E222  E   0.54055  0.70945  0.62500
E223  E   0.54055  0.79055  0.12500
E224  E   0.55509  0.02936  0.58445
E225  E   0.55509  0.47064  0.08445
E226  E   0.55509  0.52936  0.41555
E227  E   0.55509  0.97064  0.91555
E228  E   0.56083  0.18917  0.87500
E229  E   0.56083  0.31083  0.37500
E230  E   0.56083  0.68917  0.12500
E231  E   0.56083  0.81083  0.62500
E232  E   0.56083  0.18917  0.87500
E233  E   0.56083  0.31083  0.37500
E234  E   0.56083  0.68917  0.12500
E235  E   0.56083  0.81083  0.62500
E236  E   0.56417  0.09353  0.49092
E237  E   0.56417  0.40647  0.99092
E238  E   0.56417  0.59353  0.50908
E239  E   0.56417  0.90647  0.00908
E240  E   0.58445  0.05509  0.97064
E241  E   0.58445  0.44491  0.47064
E242  E   0.58445  0.55509  0.02936
E243  E   0.58445  0.94491  0.52936
E244  E   0.59353  0.00908  0.43583
E245  E   0.59353  0.49092  0.93583
E246  E   0.59353  0.50908  0.56417
E247  E   0.59353  0.99092  0.06417
E248  E   0.62500  0.04055  0.29055
E249  E   0.62500  0.04055  0.29055
E250  E   0.62500  0.06083  0.18917
E251  E   0.62500  0.06083  0.18917
E252  E   0.62500  0.43917  0.68917
E253  E   0.62500  0.43917  0.68917
E254  E   0.62500  0.45945  0.79055
E255  E   0.62500  0.54055  0.70945
E256  E   0.62500  0.56083  0.81083
E257  E   0.62500  0.56083  0.81083
E258  E   0.62500  0.93917  0.31083
E259  E   0.62500  0.93917  0.31083
E260  E   0.62500  0.95945  0.20945
E261  E   0.62500  0.95945  0.20945
E262  E   0.65647  0.18583  0.25908
E263  E   0.65647  0.31417  0.75908
E264  E   0.65647  0.68583  0.74092
E265  E   0.65647  0.81417  0.24092
E266  E   0.66555  0.22064  0.69491
E267  E   0.66555  0.27936  0.19491
E268  E   0.66555  0.72064  0.30509
E269  E   0.66555  0.77936  0.80509
E270  E   0.68583  0.24092  0.34353
E271  E   0.68583  0.25908  0.84353
E272  E   0.68583  0.74092  0.65647
E273  E   0.68583  0.75908  0.15647
E274  E   0.68917  0.12500  0.56083
E275  E   0.68917  0.37500  0.06083
E276  E   0.68917  0.62500  0.43917
E277  E   0.68917  0.87500  0.93917
E278  E   0.68917  0.12500  0.56083
E279  E   0.68917  0.37500  0.06083
E280  E   0.68917  0.62500  0.43917
E281  E   0.68917  0.87500  0.93917
E282  E   0.69491  0.16555  0.77936
E283  E   0.69491  0.33445  0.27936
E284  E   0.69491  0.66555  0.22064
E285  E   0.69491  0.83445  0.72064
E286  E   0.70945  0.12500  0.45945
E287  E   0.70945  0.37500  0.95945
E288  E   0.70945  0.62500  0.54055
E289  E   0.70945  0.87500  0.04055
E290  E   0.70945  0.87500  0.04055
E291  E   0.71156  0.00000  0.25000
E292  E   0.71156  0.50000  0.75000
E293  E   0.72064  0.19491  0.16555
E294  E   0.72064  0.30509  0.66555
E295  E   0.72064  0.69491  0.83445
E296  E   0.72064  0.80509  0.33445
E297  E   0.74092  0.15647  0.31417
E298  E   0.74092  0.34353  0.81417
E299  E   0.74092  0.65647  0.68583
E300  E   0.74092  0.84353  0.18583
E301  E   0.75000  0.03844  0.50000
E302  E   0.75000  0.21156  0.50000
E303  E   0.75000  0.28844  0.00000
E304  E   0.75000  0.46156  0.00000
E305  E   0.75000  0.53844  0.50000
E306  E   0.75000  0.71156  0.50000
E307  E   0.75000  0.78844  0.00000
E308  E   0.75000  0.96156  0.00000
E309  E   0.75908  0.15647  0.68583
E310  E   0.75908  0.34353  0.18583
E311  E   0.75908  0.65647  0.31417
E312  E   0.75908  0.84353  0.81417
E313  E   0.77936  0.19491  0.83445
E314  E   0.77936  0.30509  0.33445
E315  E   0.77936  0.69491  0.16555
E316  E   0.77936  0.80509  0.66555
E317  E   0.78844  0.00000  0.75000
E318  E   0.78844  0.50000  0.25000
E319  E   0.79055  0.12500  0.54055
E320  E   0.79055  0.37500  0.04055
E321  E   0.79055  0.37500  0.04055
E322  E   0.79055  0.62500  0.45945
E323  E   0.79055  0.87500  0.95945
E324  E   0.80509  0.16555  0.22064
E325  E   0.80509  0.33445  0.72064
E326  E   0.80509  0.66555  0.77936
E327  E   0.80509  0.83445  0.27936
E328  E   0.81083  0.12500  0.43917
E329  E   0.81083  0.37500  0.93917
E330  E   0.81083  0.62500  0.56083
E331  E   0.81083  0.87500  0.06083
E332  E   0.81083  0.12500  0.43917
E333  E   0.81083  0.37500  0.93917
E334  E   0.81083  0.62500  0.56083
E335  E   0.81083  0.87500  0.06083
E336  E   0.81417  0.24092  0.65647
E337  E   0.81417  0.25908  0.15647
E338  E   0.81417  0.74092  0.34353
E339  E   0.81417  0.75908  0.84353
E340  E   0.83445  0.22064  0.30509
E341  E   0.83445  0.27936  0.80509
E342  E   0.83445  0.72064  0.69491
E343  E   0.83445  0.77936  0.19491
E344  E   0.84353  0.18583  0.74092
E345  E   0.84353  0.31417  0.24092
E346  E   0.84353  0.68583  0.25908
E347  E   0.84353  0.81417  0.75908
E348  E   0.87500  0.04055  0.70945
E349  E   0.87500  0.04055  0.70945
E350  E   0.87500  0.06083  0.81083
E351  E   0.87500  0.06083  0.81083
E352  E   0.87500  0.43917  0.31083
E353  E   0.87500  0.45945  0.20945
E354  E   0.87500  0.45945  0.20945
E355  E   0.87500  0.54055  0.29055
E356  E   0.87500  0.56083  0.18917
E357  E   0.87500  0.56083  0.18917
E358  E   0.87500  0.93917  0.68917
E359  E   0.87500  0.93917  0.68917
E360  E   0.87500  0.95945  0.79055
E361  E   0.90647  0.00908  0.56417
E362  E   0.90647  0.49092  0.06417
E363  E   0.90647  0.50908  0.43583
E364  E   0.90647  0.99092  0.93583
E365  E   0.91555  0.05509  0.02936
E366  E   0.91555  0.44491  0.52936
E367  E   0.91555  0.55509  0.97064
E368  E   0.91555  0.94491  0.47064
E369  E   0.93583  0.09353  0.50908
E370  E   0.93583  0.40647  0.00908
E371  E   0.93583  0.59353  0.49092
E372  E   0.93583  0.90647  0.99092
E373  E   0.93917  0.18917  0.12500
E374  E   0.93917  0.31083  0.62500
E375  E   0.93917  0.68917  0.87500
E376  E   0.93917  0.81083  0.37500
E377  E   0.93917  0.18917  0.12500
E378  E   0.93917  0.31083  0.62500
E379  E   0.93917  0.68917  0.87500
E380  E   0.93917  0.81083  0.37500
E381  E   0.94491  0.02936  0.41555
E382  E   0.94491  0.47064  0.91555
E383  E   0.94491  0.52936  0.58445
E384  E   0.94491  0.97064  0.08445
E385  E   0.95945  0.20945  0.62500
E386  E   0.95945  0.20945  0.62500
E387  E   0.95945  0.29055  0.12500
E388  E   0.95945  0.70945  0.37500
E389  E   0.95945  0.79055  0.87500
E390  E   0.96156  0.00000  0.75000
E391  E   0.96156  0.50000  0.25000
E392  E   0.97064  0.08445  0.94491
E393  E   0.97064  0.41555  0.44491
E394  E   0.97064  0.58445  0.05509
E395  E   0.97064  0.91555  0.55509
E396  E   0.99092  0.06417  0.59353
E397  E   0.99092  0.43583  0.09353
E398  E   0.99092  0.56417  0.40647
E399  E   0.99092  0.93583  0.90647
loop_
