data_icc-a_Ia-3d  hall_number: 530, V_con: 3, EC_con: 3
_audit_creation_date              2025-03-05
_audit_creation_method            'MOFbuilder_1.0'
_symmetry_space_group_name_H-M    'P1'
_symmetry_Int_Tables_number       1
_symmetry_cell_setting            triclinic
loop_
_symmetry_equiv_pos_as_xyz
  x,y,z
_cell_length_a                    75.50569999999999
_cell_length_b                    75.50569999999999
_cell_length_c                    75.50569999999999
_cell_angle_alpha                 90.0
_cell_angle_beta                  90.0
_cell_angle_gamma                 90.0
loop_
_atom_site_label
_atom_site_type_symbol
_atom_site_fract_x
_atom_site_fract_y
_atom_site_fract_z
V1    V   0.05943  0.11326  0.37638
V2    V   0.05943  0.38674  0.87638
V3    V   0.05943  0.61326  0.62362
V4    V   0.05943  0.88674  0.12362
V5    V   0.11326  0.12362  0.55943
V6    V   0.11326  0.37638  0.05943
V7    V   0.11326  0.62362  0.44057
V8    V   0.11326  0.87638  0.94057
V9    V   0.12362  0.05943  0.88674
V10   V   0.12362  0.44057  0.38674
V11   V   0.12362  0.55943  0.11326
V12   V   0.12362  0.94057  0.61326
V13   V   0.12638  0.13674  0.69057
V14   V   0.12638  0.36326  0.19057
V15   V   0.12638  0.63674  0.30943
V16   V   0.12638  0.86326  0.80943
V17   V   0.13674  0.19057  0.87362
V18   V   0.13674  0.30943  0.37362
V19   V   0.13674  0.69057  0.12638
V20   V   0.13674  0.80943  0.62638
V21   V   0.19057  0.12638  0.36326
V22   V   0.19057  0.37362  0.86326
V23   V   0.19057  0.62638  0.63674
V24   V   0.19057  0.87362  0.13674
V25   V   0.30943  0.12638  0.63674
V26   V   0.30943  0.37362  0.13674
V27   V   0.30943  0.62638  0.36326
V28   V   0.30943  0.87362  0.86326
V29   V   0.36326  0.19057  0.12638
V30   V   0.36326  0.30943  0.62638
V31   V   0.36326  0.69057  0.87362
V32   V   0.36326  0.80943  0.37362
V33   V   0.37362  0.13674  0.30943
V34   V   0.37362  0.36326  0.80943
V35   V   0.37362  0.63674  0.69057
V36   V   0.37362  0.86326  0.19057
V37   V   0.37638  0.05943  0.11326
V38   V   0.37638  0.44057  0.61326
V39   V   0.37638  0.55943  0.88674
V40   V   0.37638  0.94057  0.38674
V41   V   0.38674  0.12362  0.44057
V42   V   0.38674  0.37638  0.94057
V43   V   0.38674  0.62362  0.55943
V44   V   0.38674  0.87638  0.05943
V45   V   0.44057  0.11326  0.62362
V46   V   0.44057  0.38674  0.12362
V47   V   0.44057  0.61326  0.37638
V48   V   0.44057  0.88674  0.87638
V49   V   0.55943  0.11326  0.12362
V50   V   0.55943  0.38674  0.62362
V51   V   0.55943  0.61326  0.87638
V52   V   0.55943  0.88674  0.37638
V53   V   0.61326  0.12362  0.94057
V54   V   0.61326  0.37638  0.44057
V55   V   0.61326  0.62362  0.05943
V56   V   0.61326  0.87638  0.55943
V57   V   0.62362  0.05943  0.61326
V58   V   0.62362  0.44057  0.11326
V59   V   0.62362  0.55943  0.38674
V60   V   0.62362  0.94057  0.88674
V61   V   0.62638  0.13674  0.80943
V62   V   0.62638  0.36326  0.30943
V63   V   0.62638  0.63674  0.19057
V64   V   0.62638  0.86326  0.69057
V65   V   0.63674  0.19057  0.62638
V66   V   0.63674  0.30943  0.12638
V67   V   0.63674  0.69057  0.37362
V68   V   0.63674  0.80943  0.87362
V69   V   0.69057  0.12638  0.13674
V70   V   0.69057  0.37362  0.63674
V71   V   0.69057  0.62638  0.86326
V72   V   0.69057  0.87362  0.36326
V73   V   0.80943  0.12638  0.86326
V74   V   0.80943  0.37362  0.36326
V75   V   0.80943  0.62638  0.13674
V76   V   0.80943  0.87362  0.63674
V77   V   0.86326  0.19057  0.37362
V78   V   0.86326  0.30943  0.87362
V79   V   0.86326  0.69057  0.62638
V80   V   0.86326  0.80943  0.12638
V81   V   0.87362  0.13674  0.19057
V82   V   0.87362  0.36326  0.69057
V83   V   0.87362  0.63674  0.80943
V84   V   0.87362  0.86326  0.30943
V85   V   0.87638  0.05943  0.38674
V86   V   0.87638  0.44057  0.88674
V87   V   0.87638  0.55943  0.61326
V88   V   0.87638  0.94057  0.11326
V89   V   0.88674  0.12362  0.05943
V90   V   0.88674  0.37638  0.55943
V91   V   0.88674  0.62362  0.94057
V92   V   0.88674  0.87638  0.44057
V93   V   0.94057  0.11326  0.87638
V94   V   0.94057  0.38674  0.37638
V95   V   0.94057  0.61326  0.12362
V96   V   0.94057  0.88674  0.62362
EC1    EC   0.02197  0.03715  0.80482
EC2    EC   0.02197  0.46285  0.30482
EC3    EC   0.02197  0.53715  0.19518
EC4    EC   0.02197  0.96285  0.69518
EC5    EC   0.03715  0.19518  0.47803
EC6    EC   0.03715  0.30482  0.97803
EC7    EC   0.03715  0.69518  0.52197
EC8    EC   0.03715  0.80482  0.02197
EC9    EC   0.05482  0.21285  0.77197
EC10   EC   0.05482  0.28715  0.27197
EC11   EC   0.05482  0.71285  0.22803
EC12   EC   0.05482  0.78715  0.72803
EC13   EC   0.19518  0.02197  0.53715
EC14   EC   0.19518  0.47803  0.03715
EC15   EC   0.19518  0.52197  0.46285
EC16   EC   0.19518  0.97803  0.96285
EC17   EC   0.21285  0.22803  0.44518
EC18   EC   0.21285  0.27197  0.94518
EC19   EC   0.21285  0.72803  0.55482
EC20   EC   0.21285  0.77197  0.05482
EC21   EC   0.22803  0.05482  0.71285
EC22   EC   0.22803  0.44518  0.21285
EC23   EC   0.22803  0.55482  0.28715
EC24   EC   0.22803  0.94518  0.78715
EC25   EC   0.27197  0.05482  0.28715
EC26   EC   0.27197  0.44518  0.78715
EC27   EC   0.27197  0.55482  0.71285
EC28   EC   0.27197  0.94518  0.21285
EC29   EC   0.28715  0.22803  0.55482
EC30   EC   0.28715  0.27197  0.05482
EC31   EC   0.28715  0.72803  0.44518
EC32   EC   0.28715  0.77197  0.94518
EC33   EC   0.30482  0.02197  0.46285
EC34   EC   0.30482  0.47803  0.96285
EC35   EC   0.30482  0.52197  0.53715
EC36   EC   0.30482  0.97803  0.03715
EC37   EC   0.44518  0.21285  0.22803
EC38   EC   0.44518  0.28715  0.72803
EC39   EC   0.44518  0.71285  0.77197
EC40   EC   0.44518  0.78715  0.27197
EC41   EC   0.46285  0.19518  0.52197
EC42   EC   0.46285  0.30482  0.02197
EC43   EC   0.46285  0.69518  0.47803
EC44   EC   0.46285  0.80482  0.97803
EC45   EC   0.47803  0.03715  0.19518
EC46   EC   0.47803  0.46285  0.69518
EC47   EC   0.47803  0.53715  0.80482
EC48   EC   0.47803  0.96285  0.30482
EC49   EC   0.52197  0.03715  0.69518
EC50   EC   0.52197  0.46285  0.19518
EC51   EC   0.52197  0.53715  0.30482
EC52   EC   0.52197  0.96285  0.80482
EC53   EC   0.53715  0.19518  0.02197
EC54   EC   0.53715  0.30482  0.52197
EC55   EC   0.53715  0.69518  0.97803
EC56   EC   0.53715  0.80482  0.47803
EC57   EC   0.55482  0.21285  0.72803
EC58   EC   0.55482  0.28715  0.22803
EC59   EC   0.55482  0.71285  0.27197
EC60   EC   0.55482  0.78715  0.77197
EC61   EC   0.69518  0.02197  0.96285
EC62   EC   0.69518  0.47803  0.46285
EC63   EC   0.69518  0.52197  0.03715
EC64   EC   0.69518  0.97803  0.53715
EC65   EC   0.71285  0.22803  0.05482
EC66   EC   0.71285  0.27197  0.55482
EC67   EC   0.71285  0.72803  0.94518
EC68   EC   0.71285  0.77197  0.44518
EC69   EC   0.72803  0.05482  0.78715
EC70   EC   0.72803  0.44518  0.28715
EC71   EC   0.72803  0.55482  0.21285
EC72   EC   0.72803  0.94518  0.71285
EC73   EC   0.77197  0.05482  0.21285
EC74   EC   0.77197  0.44518  0.71285
EC75   EC   0.77197  0.55482  0.78715
EC76   EC   0.77197  0.94518  0.28715
EC77   EC   0.78715  0.22803  0.94518
EC78   EC   0.78715  0.27197  0.44518
EC79   EC   0.78715  0.72803  0.05482
EC80   EC   0.78715  0.77197  0.55482
EC81   EC   0.80482  0.02197  0.03715
EC82   EC   0.80482  0.47803  0.53715
EC83   EC   0.80482  0.52197  0.96285
EC84   EC   0.80482  0.97803  0.46285
EC85   EC   0.94518  0.21285  0.27197
EC86   EC   0.94518  0.28715  0.77197
EC87   EC   0.94518  0.71285  0.72803
EC88   EC   0.94518  0.78715  0.22803
EC89   EC   0.96285  0.19518  0.97803
EC90   EC   0.96285  0.30482  0.47803
EC91   EC   0.96285  0.69518  0.02197
EC92   EC   0.96285  0.80482  0.52197
EC93   EC   0.97803  0.03715  0.30482
EC94   EC   0.97803  0.46285  0.80482
EC95   EC   0.97803  0.53715  0.69518
EC96   EC   0.97803  0.96285  0.19518
E1    E   0.00000  0.25000  0.27197
E2    E   0.00000  0.25000  0.47803
E3    E   0.00000  0.25000  0.77197
E4    E   0.00000  0.25000  0.97803
E5    E   0.00000  0.75000  0.02197
E6    E   0.00000  0.75000  0.22803
E7    E   0.00000  0.75000  0.52197
E8    E   0.00000  0.75000  0.72803
E9    E   0.01873  0.07521  0.34060
E10   E   0.01873  0.42479  0.84060
E11   E   0.01873  0.57521  0.65940
E12   E   0.01873  0.92479  0.15940
E13   E   0.02197  0.00000  0.75000
E14   E   0.02197  0.50000  0.25000
E15   E   0.04829  0.15422  0.42720
E16   E   0.04829  0.34578  0.92720
E17   E   0.04829  0.65422  0.57280
E18   E   0.04829  0.84578  0.07280
E19   E   0.07280  0.04829  0.84578
E20   E   0.07280  0.45171  0.34578
E21   E   0.07280  0.54829  0.15422
E22   E   0.07280  0.95171  0.65422
E23   E   0.07521  0.15940  0.51873
E24   E   0.07521  0.34060  0.01873
E25   E   0.07521  0.65940  0.48127
E26   E   0.07521  0.84060  0.98127
E27   E   0.09060  0.17479  0.73127
E28   E   0.09060  0.32521  0.23127
E29   E   0.09060  0.67479  0.26873
E30   E   0.09060  0.82521  0.76873
E31   E   0.09578  0.20171  0.82280
E32   E   0.09578  0.29829  0.32280
E33   E   0.09578  0.70171  0.17720
E34   E   0.09578  0.79829  0.67720
E35   E   0.11982  0.13018  0.62500
E36   E   0.11982  0.36982  0.12500
E37   E   0.11982  0.63018  0.37500
E38   E   0.11982  0.86982  0.87500
E39   E   0.11982  0.13018  0.62500
E40   E   0.11982  0.36982  0.12500
E41   E   0.11982  0.63018  0.37500
E42   E   0.11982  0.86982  0.87500
E43   E   0.12500  0.11982  0.36982
E44   E   0.12500  0.11982  0.36982
E45   E   0.12500  0.38018  0.86982
E46   E   0.12500  0.61982  0.63018
E47   E   0.12500  0.88018  0.13018
E48   E   0.13018  0.12500  0.88018
E49   E   0.13018  0.37500  0.38018
E50   E   0.13018  0.62500  0.11982
E51   E   0.13018  0.62500  0.11982
E52   E   0.13018  0.87500  0.61982
E53   E   0.15422  0.07280  0.54829
E54   E   0.15422  0.42720  0.04829
E55   E   0.15422  0.57280  0.45171
E56   E   0.15422  0.92720  0.95171
E57   E   0.15940  0.01873  0.92479
E58   E   0.15940  0.48127  0.42479
E59   E   0.15940  0.51873  0.07521
E60   E   0.15940  0.98127  0.57521
E61   E   0.17479  0.23127  0.90940
E62   E   0.17479  0.26873  0.40940
E63   E   0.17479  0.73127  0.09060
E64   E   0.17479  0.76873  0.59060
E65   E   0.17720  0.09578  0.70171
E66   E   0.17720  0.40422  0.20171
E67   E   0.17720  0.59578  0.29829
E68   E   0.17720  0.90422  0.79829
E69   E   0.20171  0.17720  0.40422
E70   E   0.20171  0.32280  0.90422
E71   E   0.20171  0.67720  0.59578
E72   E   0.20171  0.82280  0.09578
E73   E   0.22803  0.00000  0.75000
E74   E   0.22803  0.50000  0.25000
E75   E   0.23127  0.09060  0.32521
E76   E   0.23127  0.40940  0.82521
E77   E   0.23127  0.59060  0.67479
E78   E   0.23127  0.90940  0.17479
E79   E   0.25000  0.02197  0.50000
E80   E   0.25000  0.22803  0.50000
E81   E   0.25000  0.27197  0.00000
E82   E   0.25000  0.47803  0.00000
E83   E   0.25000  0.52197  0.50000
E84   E   0.25000  0.72803  0.50000
E85   E   0.25000  0.77197  0.00000
E86   E   0.25000  0.97803  0.00000
E87   E   0.26873  0.09060  0.67479
E88   E   0.26873  0.40940  0.17479
E89   E   0.26873  0.59060  0.32521
E90   E   0.26873  0.90940  0.82521
E91   E   0.27197  0.00000  0.25000
E92   E   0.27197  0.50000  0.75000
E93   E   0.29829  0.17720  0.59578
E94   E   0.29829  0.32280  0.09578
E95   E   0.29829  0.67720  0.40422
E96   E   0.29829  0.82280  0.90422
E97   E   0.32280  0.09578  0.29829
E98   E   0.32280  0.40422  0.79829
E99   E   0.32280  0.59578  0.70171
E100  E   0.32280  0.90422  0.20171
E101  E   0.32521  0.23127  0.09060
E102  E   0.32521  0.26873  0.59060
E103  E   0.32521  0.73127  0.90940
E104  E   0.32521  0.76873  0.40940
E105  E   0.34060  0.01873  0.07521
E106  E   0.34060  0.48127  0.57521
E107  E   0.34060  0.51873  0.92479
E108  E   0.34060  0.98127  0.42479
E109  E   0.34578  0.07280  0.45171
E110  E   0.34578  0.42720  0.95171
E111  E   0.34578  0.57280  0.54829
E112  E   0.34578  0.92720  0.04829
E113  E   0.36982  0.12500  0.11982
E114  E   0.36982  0.12500  0.11982
E115  E   0.36982  0.37500  0.61982
E116  E   0.36982  0.62500  0.88018
E117  E   0.36982  0.87500  0.38018
E118  E   0.37500  0.11982  0.63018
E119  E   0.37500  0.11982  0.63018
E120  E   0.37500  0.38018  0.13018
E121  E   0.37500  0.61982  0.36982
E122  E   0.37500  0.88018  0.86982
E123  E   0.38018  0.13018  0.37500
E124  E   0.38018  0.36982  0.87500
E125  E   0.38018  0.63018  0.62500
E126  E   0.38018  0.86982  0.12500
E127  E   0.40422  0.20171  0.17720
E128  E   0.40422  0.29829  0.67720
E129  E   0.40422  0.70171  0.82280
E130  E   0.40422  0.79829  0.32280
E131  E   0.40940  0.17479  0.26873
E132  E   0.40940  0.32521  0.76873
E133  E   0.40940  0.67479  0.73127
E134  E   0.40940  0.82521  0.23127
E135  E   0.42479  0.15940  0.48127
E136  E   0.42479  0.34060  0.98127
E137  E   0.42479  0.65940  0.51873
E138  E   0.42479  0.84060  0.01873
E139  E   0.42720  0.04829  0.15422
E140  E   0.42720  0.45171  0.65422
E141  E   0.42720  0.54829  0.84578
E142  E   0.42720  0.95171  0.34578
E143  E   0.45171  0.15422  0.57280
E144  E   0.45171  0.34578  0.07280
E145  E   0.45171  0.65422  0.42720
E146  E   0.45171  0.84578  0.92720
E147  E   0.47803  0.00000  0.25000
E148  E   0.47803  0.50000  0.75000
E149  E   0.48127  0.07521  0.65940
E150  E   0.48127  0.42479  0.15940
E151  E   0.48127  0.57521  0.34060
E152  E   0.48127  0.92479  0.84060
E153  E   0.50000  0.25000  0.02197
E154  E   0.50000  0.25000  0.22803
E155  E   0.50000  0.25000  0.52197
E156  E   0.50000  0.25000  0.72803
E157  E   0.50000  0.75000  0.27197
E158  E   0.50000  0.75000  0.47803
E159  E   0.50000  0.75000  0.77197
E160  E   0.50000  0.75000  0.97803
E161  E   0.51873  0.07521  0.15940
E162  E   0.51873  0.42479  0.65940
E163  E   0.51873  0.57521  0.84060
E164  E   0.51873  0.92479  0.34060
E165  E   0.52197  0.00000  0.75000
E166  E   0.52197  0.50000  0.25000
E167  E   0.54829  0.15422  0.07280
E168  E   0.54829  0.34578  0.57280
E169  E   0.54829  0.65422  0.92720
E170  E   0.54829  0.84578  0.42720
E171  E   0.57280  0.04829  0.65422
E172  E   0.57280  0.45171  0.15422
E173  E   0.57280  0.54829  0.34578
E174  E   0.57280  0.95171  0.84578
E175  E   0.57521  0.15940  0.98127
E176  E   0.57521  0.34060  0.48127
E177  E   0.57521  0.65940  0.01873
E178  E   0.57521  0.84060  0.51873
E179  E   0.59060  0.17479  0.76873
E180  E   0.59060  0.32521  0.26873
E181  E   0.59060  0.67479  0.23127
E182  E   0.59060  0.82521  0.73127
E183  E   0.59578  0.20171  0.67720
E184  E   0.59578  0.29829  0.17720
E185  E   0.59578  0.70171  0.32280
E186  E   0.59578  0.79829  0.82280
E187  E   0.61982  0.13018  0.87500
E188  E   0.61982  0.36982  0.37500
E189  E   0.61982  0.63018  0.12500
E190  E   0.61982  0.86982  0.62500
E191  E   0.62500  0.11982  0.13018
E192  E   0.62500  0.11982  0.13018
E193  E   0.62500  0.38018  0.63018
E194  E   0.62500  0.61982  0.86982
E195  E   0.62500  0.88018  0.36982
E196  E   0.63018  0.12500  0.61982
E197  E   0.63018  0.37500  0.11982
E198  E   0.63018  0.37500  0.11982
E199  E   0.63018  0.62500  0.38018
E200  E   0.63018  0.87500  0.88018
E201  E   0.65422  0.07280  0.95171
E202  E   0.65422  0.42720  0.45171
E203  E   0.65422  0.57280  0.04829
E204  E   0.65422  0.92720  0.54829
E205  E   0.65940  0.01873  0.57521
E206  E   0.65940  0.48127  0.07521
E207  E   0.65940  0.51873  0.42479
E208  E   0.65940  0.98127  0.92479
E209  E   0.67479  0.23127  0.59060
E210  E   0.67479  0.26873  0.09060
E211  E   0.67479  0.73127  0.40940
E212  E   0.67479  0.76873  0.90940
E213  E   0.67720  0.09578  0.79829
E214  E   0.67720  0.40422  0.29829
E215  E   0.67720  0.59578  0.20171
E216  E   0.67720  0.90422  0.70171
E217  E   0.70171  0.17720  0.09578
E218  E   0.70171  0.32280  0.59578
E219  E   0.70171  0.67720  0.90422
E220  E   0.70171  0.82280  0.40422
E221  E   0.72803  0.00000  0.75000
E222  E   0.72803  0.50000  0.25000
E223  E   0.73127  0.09060  0.17479
E224  E   0.73127  0.40940  0.67479
E225  E   0.73127  0.59060  0.82521
E226  E   0.73127  0.90940  0.32521
E227  E   0.75000  0.02197  0.00000
E228  E   0.75000  0.22803  0.00000
E229  E   0.75000  0.27197  0.50000
E230  E   0.75000  0.47803  0.50000
E231  E   0.75000  0.52197  0.00000
E232  E   0.75000  0.72803  0.00000
E233  E   0.75000  0.77197  0.50000
E234  E   0.75000  0.97803  0.50000
E235  E   0.76873  0.09060  0.82521
E236  E   0.76873  0.40940  0.32521
E237  E   0.76873  0.59060  0.17479
E238  E   0.76873  0.90940  0.67479
E239  E   0.77197  0.00000  0.25000
E240  E   0.77197  0.50000  0.75000
E241  E   0.79829  0.17720  0.90422
E242  E   0.79829  0.32280  0.40422
E243  E   0.79829  0.67720  0.09578
E244  E   0.79829  0.82280  0.59578
E245  E   0.82280  0.09578  0.20171
E246  E   0.82280  0.40422  0.70171
E247  E   0.82280  0.59578  0.79829
E248  E   0.82280  0.90422  0.29829
E249  E   0.82521  0.23127  0.40940
E250  E   0.82521  0.26873  0.90940
E251  E   0.82521  0.73127  0.59060
E252  E   0.82521  0.76873  0.09060
E253  E   0.84060  0.01873  0.42479
E254  E   0.84060  0.48127  0.92479
E255  E   0.84060  0.51873  0.57521
E256  E   0.84060  0.98127  0.07521
E257  E   0.84578  0.07280  0.04829
E258  E   0.84578  0.42720  0.54829
E259  E   0.84578  0.57280  0.95171
E260  E   0.84578  0.92720  0.45171
E261  E   0.86982  0.12500  0.38018
E262  E   0.86982  0.37500  0.88018
E263  E   0.86982  0.62500  0.61982
E264  E   0.86982  0.87500  0.11982
E265  E   0.86982  0.87500  0.11982
E266  E   0.87500  0.11982  0.86982
E267  E   0.87500  0.11982  0.86982
E268  E   0.87500  0.38018  0.36982
E269  E   0.87500  0.61982  0.13018
E270  E   0.87500  0.88018  0.63018
E271  E   0.88018  0.13018  0.12500
E272  E   0.88018  0.36982  0.62500
E273  E   0.88018  0.63018  0.87500
E274  E   0.88018  0.86982  0.37500
E275  E   0.90422  0.20171  0.32280
E276  E   0.90422  0.29829  0.82280
E277  E   0.90422  0.70171  0.67720
E278  E   0.90422  0.79829  0.17720
E279  E   0.90940  0.17479  0.23127
E280  E   0.90940  0.32521  0.73127
E281  E   0.90940  0.67479  0.76873
E282  E   0.90940  0.82521  0.26873
E283  E   0.92479  0.15940  0.01873
E284  E   0.92479  0.34060  0.51873
E285  E   0.92479  0.65940  0.98127
E286  E   0.92479  0.84060  0.48127
E287  E   0.92720  0.04829  0.34578
E288  E   0.92720  0.45171  0.84578
E289  E   0.92720  0.54829  0.65422
E290  E   0.92720  0.95171  0.15422
E291  E   0.95171  0.15422  0.92720
E292  E   0.95171  0.34578  0.42720
E293  E   0.95171  0.65422  0.07280
E294  E   0.95171  0.84578  0.57280
E295  E   0.97803  0.00000  0.25000
E296  E   0.97803  0.50000  0.75000
E297  E   0.98127  0.07521  0.84060
E298  E   0.98127  0.42479  0.34060
E299  E   0.98127  0.57521  0.15940
E300  E   0.98127  0.92479  0.65940
loop_
