data_icd-a_Ia-3d  hall_number: 530, V_con: 4, EC_con: 4
_audit_creation_date              2025-03-05
_audit_creation_method            'MOFbuilder_1.0'
_symmetry_space_group_name_H-M    'P1'
_symmetry_Int_Tables_number       1
_symmetry_cell_setting            triclinic
loop_
_symmetry_equiv_pos_as_xyz
  x,y,z
_cell_length_a                    69.9686
_cell_length_b                    69.9686
_cell_length_c                    69.9686
_cell_angle_alpha                 90.0
_cell_angle_beta                  90.0
_cell_angle_gamma                 90.0
loop_
_atom_site_label
_atom_site_type_symbol
_atom_site_fract_x
_atom_site_fract_y
_atom_site_fract_z
V1    V   0.00000  0.17854  0.17553
V2    V   0.00000  0.17854  0.67553
V3    V   0.00000  0.32146  0.17553
V4    V   0.00000  0.32146  0.67553
V5    V   0.00000  0.67854  0.32447
V6    V   0.00000  0.67854  0.82447
V7    V   0.00000  0.82146  0.32447
V8    V   0.00000  0.82146  0.82447
V9    V   0.07146  0.25000  0.07447
V10   V   0.07146  0.25000  0.57447
V11   V   0.07146  0.75000  0.42553
V12   V   0.07146  0.75000  0.92553
V13   V   0.07447  0.07146  0.25000
V14   V   0.07447  0.42854  0.75000
V15   V   0.07447  0.57146  0.75000
V16   V   0.07447  0.92854  0.25000
V17   V   0.17553  0.00000  0.17854
V18   V   0.17553  0.00000  0.32146
V19   V   0.17553  0.50000  0.67854
V20   V   0.17553  0.50000  0.82146
V21   V   0.17854  0.17553  0.00000
V22   V   0.17854  0.32447  0.50000
V23   V   0.17854  0.67553  0.00000
V24   V   0.17854  0.82447  0.50000
V25   V   0.25000  0.07447  0.07146
V26   V   0.25000  0.07447  0.92854
V27   V   0.25000  0.42553  0.42854
V28   V   0.25000  0.42553  0.57146
V29   V   0.25000  0.57447  0.07146
V30   V   0.25000  0.57447  0.92854
V31   V   0.25000  0.92553  0.42854
V32   V   0.25000  0.92553  0.57146
V33   V   0.32146  0.17553  0.00000
V34   V   0.32146  0.32447  0.50000
V35   V   0.32146  0.67553  0.00000
V36   V   0.32146  0.82447  0.50000
V37   V   0.32447  0.00000  0.67854
V38   V   0.32447  0.00000  0.82146
V39   V   0.32447  0.50000  0.17854
V40   V   0.32447  0.50000  0.32146
V41   V   0.42553  0.07146  0.75000
V42   V   0.42553  0.42854  0.25000
V43   V   0.42553  0.57146  0.25000
V44   V   0.42553  0.92854  0.75000
V45   V   0.42854  0.25000  0.42553
V46   V   0.42854  0.25000  0.92553
V47   V   0.42854  0.75000  0.07447
V48   V   0.42854  0.75000  0.57447
V49   V   0.50000  0.17854  0.32447
V50   V   0.50000  0.17854  0.82447
V51   V   0.50000  0.32146  0.32447
V52   V   0.50000  0.32146  0.82447
V53   V   0.50000  0.67854  0.17553
V54   V   0.50000  0.67854  0.67553
V55   V   0.50000  0.82146  0.17553
V56   V   0.50000  0.82146  0.67553
V57   V   0.57146  0.25000  0.42553
V58   V   0.57146  0.25000  0.92553
V59   V   0.57146  0.75000  0.07447
V60   V   0.57146  0.75000  0.57447
V61   V   0.57447  0.07146  0.25000
V62   V   0.57447  0.42854  0.75000
V63   V   0.57447  0.57146  0.75000
V64   V   0.57447  0.92854  0.25000
V65   V   0.67553  0.00000  0.17854
V66   V   0.67553  0.00000  0.32146
V67   V   0.67553  0.50000  0.67854
V68   V   0.67553  0.50000  0.82146
V69   V   0.67854  0.17553  0.50000
V70   V   0.67854  0.32447  0.00000
V71   V   0.67854  0.67553  0.50000
V72   V   0.67854  0.82447  0.00000
V73   V   0.75000  0.07447  0.42854
V74   V   0.75000  0.07447  0.57146
V75   V   0.75000  0.42553  0.07146
V76   V   0.75000  0.42553  0.92854
V77   V   0.75000  0.57447  0.42854
V78   V   0.75000  0.57447  0.57146
V79   V   0.75000  0.92553  0.07146
V80   V   0.75000  0.92553  0.92854
V81   V   0.82146  0.17553  0.50000
V82   V   0.82146  0.32447  0.00000
V83   V   0.82146  0.67553  0.50000
V84   V   0.82146  0.82447  0.00000
V85   V   0.82447  0.00000  0.67854
V86   V   0.82447  0.00000  0.82146
V87   V   0.82447  0.50000  0.17854
V88   V   0.82447  0.50000  0.32146
V89   V   0.92553  0.07146  0.75000
V90   V   0.92553  0.42854  0.25000
V91   V   0.92553  0.57146  0.25000
V92   V   0.92553  0.92854  0.75000
V93   V   0.92854  0.25000  0.07447
V94   V   0.92854  0.25000  0.57447
V95   V   0.92854  0.75000  0.42553
V96   V   0.92854  0.75000  0.92553
EC1    EC   0.02738  0.18400  0.32447
EC2    EC   0.02738  0.31600  0.82447
EC3    EC   0.02738  0.68400  0.67553
EC4    EC   0.02738  0.81600  0.17553
EC5    EC   0.06600  0.22262  0.92553
EC6    EC   0.06600  0.27738  0.42553
EC7    EC   0.06600  0.72262  0.07447
EC8    EC   0.06600  0.77738  0.57447
EC9    EC   0.07447  0.06600  0.72262
EC10   EC   0.07447  0.43400  0.22262
EC11   EC   0.07447  0.56600  0.27738
EC12   EC   0.07447  0.93400  0.77738
EC13   EC   0.17553  0.02738  0.81600
EC14   EC   0.17553  0.47262  0.31600
EC15   EC   0.17553  0.52738  0.18400
EC16   EC   0.17553  0.97262  0.68400
EC17   EC   0.18400  0.17553  0.52738
EC18   EC   0.18400  0.32447  0.02738
EC19   EC   0.18400  0.67553  0.47262
EC20   EC   0.18400  0.82447  0.97262
EC21   EC   0.22262  0.07447  0.43400
EC22   EC   0.22262  0.42553  0.93400
EC23   EC   0.22262  0.57447  0.56600
EC24   EC   0.22262  0.92553  0.06600
EC25   EC   0.27738  0.07447  0.56600
EC26   EC   0.27738  0.42553  0.06600
EC27   EC   0.27738  0.57447  0.43400
EC28   EC   0.27738  0.92553  0.93400
EC29   EC   0.31600  0.17553  0.47262
EC30   EC   0.31600  0.32447  0.97262
EC31   EC   0.31600  0.67553  0.52738
EC32   EC   0.31600  0.82447  0.02738
EC33   EC   0.32447  0.02738  0.18400
EC34   EC   0.32447  0.47262  0.68400
EC35   EC   0.32447  0.52738  0.81600
EC36   EC   0.32447  0.97262  0.31600
EC37   EC   0.42553  0.06600  0.27738
EC38   EC   0.42553  0.43400  0.77738
EC39   EC   0.42553  0.56600  0.72262
EC40   EC   0.42553  0.93400  0.22262
EC41   EC   0.43400  0.22262  0.07447
EC42   EC   0.43400  0.27738  0.57447
EC43   EC   0.43400  0.72262  0.92553
EC44   EC   0.43400  0.77738  0.42553
EC45   EC   0.47262  0.18400  0.67553
EC46   EC   0.47262  0.31600  0.17553
EC47   EC   0.47262  0.68400  0.32447
EC48   EC   0.47262  0.81600  0.82447
EC49   EC   0.52738  0.18400  0.17553
EC50   EC   0.52738  0.31600  0.67553
EC51   EC   0.52738  0.68400  0.82447
EC52   EC   0.52738  0.81600  0.32447
EC53   EC   0.56600  0.22262  0.57447
EC54   EC   0.56600  0.27738  0.07447
EC55   EC   0.56600  0.72262  0.42553
EC56   EC   0.56600  0.77738  0.92553
EC57   EC   0.57447  0.06600  0.77738
EC58   EC   0.57447  0.43400  0.27738
EC59   EC   0.57447  0.56600  0.22262
EC60   EC   0.57447  0.93400  0.72262
EC61   EC   0.67553  0.02738  0.68400
EC62   EC   0.67553  0.47262  0.18400
EC63   EC   0.67553  0.52738  0.31600
EC64   EC   0.67553  0.97262  0.81600
EC65   EC   0.68400  0.17553  0.97262
EC66   EC   0.68400  0.32447  0.47262
EC67   EC   0.68400  0.67553  0.02738
EC68   EC   0.68400  0.82447  0.52738
EC69   EC   0.72262  0.07447  0.06600
EC70   EC   0.72262  0.42553  0.56600
EC71   EC   0.72262  0.57447  0.93400
EC72   EC   0.72262  0.92553  0.43400
EC73   EC   0.77738  0.07447  0.93400
EC74   EC   0.77738  0.42553  0.43400
EC75   EC   0.77738  0.57447  0.06600
EC76   EC   0.77738  0.92553  0.56600
EC77   EC   0.81600  0.17553  0.02738
EC78   EC   0.81600  0.32447  0.52738
EC79   EC   0.81600  0.67553  0.97262
EC80   EC   0.81600  0.82447  0.47262
EC81   EC   0.82447  0.02738  0.31600
EC82   EC   0.82447  0.47262  0.81600
EC83   EC   0.82447  0.52738  0.68400
EC84   EC   0.82447  0.97262  0.18400
EC85   EC   0.92553  0.06600  0.22262
EC86   EC   0.92553  0.43400  0.72262
EC87   EC   0.92553  0.56600  0.77738
EC88   EC   0.92553  0.93400  0.27738
EC89   EC   0.93400  0.22262  0.42553
EC90   EC   0.93400  0.27738  0.92553
EC91   EC   0.93400  0.72262  0.57447
EC92   EC   0.93400  0.77738  0.07447
EC93   EC   0.97262  0.18400  0.82447
EC94   EC   0.97262  0.31600  0.32447
EC95   EC   0.97262  0.68400  0.17553
EC96   EC   0.97262  0.81600  0.67553
E1    E   0.00000  0.25000  0.07447
E2    E   0.00000  0.25000  0.17553
E3    E   0.00000  0.25000  0.32447
E4    E   0.00000  0.25000  0.42553
E5    E   0.00000  0.25000  0.57447
E6    E   0.00000  0.25000  0.67553
E7    E   0.00000  0.25000  0.82447
E8    E   0.00000  0.25000  0.92553
E9    E   0.00000  0.75000  0.07447
E10   E   0.00000  0.75000  0.17553
E11   E   0.00000  0.75000  0.32447
E12   E   0.00000  0.75000  0.42553
E13   E   0.00000  0.75000  0.57447
E14   E   0.00000  0.75000  0.67553
E15   E   0.00000  0.75000  0.82447
E16   E   0.00000  0.75000  0.92553
E17   E   0.01931  0.20331  0.87500
E18   E   0.01931  0.29669  0.37500
E19   E   0.01931  0.70331  0.12500
E20   E   0.01931  0.79669  0.62500
E21   E   0.03573  0.21427  0.12500
E22   E   0.03573  0.21427  0.62500
E23   E   0.03573  0.28573  0.12500
E24   E   0.03573  0.28573  0.62500
E25   E   0.03573  0.71427  0.37500
E26   E   0.03573  0.71427  0.87500
E27   E   0.03573  0.78573  0.37500
E28   E   0.03573  0.78573  0.87500
E29   E   0.03573  0.21427  0.12500
E30   E   0.03573  0.21427  0.62500
E31   E   0.03573  0.28573  0.12500
E32   E   0.03573  0.28573  0.62500
E33   E   0.03573  0.71427  0.37500
E34   E   0.03573  0.71427  0.87500
E35   E   0.03573  0.78573  0.37500
E36   E   0.03573  0.78573  0.87500
E37   E   0.03724  0.12227  0.69907
E38   E   0.03724  0.37773  0.19907
E39   E   0.03724  0.62227  0.30093
E40   E   0.03724  0.87773  0.80093
E41   E   0.04669  0.23069  0.37500
E42   E   0.04669  0.26931  0.87500
E43   E   0.04669  0.73069  0.62500
E44   E   0.04669  0.76931  0.12500
E45   E   0.05093  0.12773  0.28724
E46   E   0.05093  0.37227  0.78724
E47   E   0.05093  0.62773  0.71276
E48   E   0.05093  0.87227  0.21276
E49   E   0.07447  0.00000  0.25000
E50   E   0.07447  0.50000  0.75000
E51   E   0.07447  0.00000  0.75000
E52   E   0.07447  0.50000  0.25000
E53   E   0.12227  0.19907  0.96276
E54   E   0.12227  0.30093  0.46276
E55   E   0.12227  0.69907  0.03724
E56   E   0.12227  0.80093  0.53724
E57   E   0.12500  0.01931  0.70331
E58   E   0.12500  0.03573  0.21427
E59   E   0.12500  0.03573  0.28573
E60   E   0.12500  0.03573  0.21427
E61   E   0.12500  0.03573  0.28573
E62   E   0.12500  0.04669  0.76931
E63   E   0.12500  0.45331  0.26931
E64   E   0.12500  0.46427  0.71427
E65   E   0.12500  0.46427  0.78573
E66   E   0.12500  0.48069  0.20331
E67   E   0.12500  0.51931  0.29669
E68   E   0.12500  0.53573  0.71427
E69   E   0.12500  0.53573  0.78573
E70   E   0.12500  0.54669  0.23069
E71   E   0.12500  0.95331  0.73069
E72   E   0.12500  0.96427  0.21427
E73   E   0.12500  0.96427  0.28573
E74   E   0.12500  0.98069  0.79669
E75   E   0.12773  0.21276  0.55093
E76   E   0.12773  0.28724  0.05093
E77   E   0.12773  0.71276  0.44907
E78   E   0.12773  0.78724  0.94907
E79   E   0.17553  0.00000  0.25000
E80   E   0.17553  0.50000  0.75000
E81   E   0.17553  0.00000  0.75000
E82   E   0.17553  0.50000  0.25000
E83   E   0.19907  0.03724  0.37773
E84   E   0.19907  0.46276  0.87773
E85   E   0.19907  0.53724  0.62227
E86   E   0.19907  0.96276  0.12227
E87   E   0.20331  0.12500  0.48069
E88   E   0.20331  0.37500  0.98069
E89   E   0.20331  0.62500  0.51931
E90   E   0.20331  0.87500  0.01931
E91   E   0.21276  0.05093  0.87227
E92   E   0.21276  0.44907  0.37227
E93   E   0.21276  0.55093  0.12773
E94   E   0.21276  0.94907  0.62773
E95   E   0.21427  0.12500  0.03573
E96   E   0.21427  0.12500  0.03573
E97   E   0.21427  0.12500  0.96427
E98   E   0.21427  0.37500  0.46427
E99   E   0.21427  0.37500  0.53573
E100  E   0.21427  0.62500  0.03573
E101  E   0.21427  0.62500  0.03573
E102  E   0.21427  0.62500  0.96427
E103  E   0.21427  0.87500  0.46427
E104  E   0.21427  0.87500  0.53573
E105  E   0.23069  0.12500  0.54669
E106  E   0.23069  0.37500  0.04669
E107  E   0.23069  0.62500  0.45331
E108  E   0.23069  0.87500  0.95331
E109  E   0.25000  0.07447  0.00000
E110  E   0.25000  0.07447  0.50000
E111  E   0.25000  0.17553  0.00000
E112  E   0.25000  0.17553  0.50000
E113  E   0.25000  0.32447  0.00000
E114  E   0.25000  0.32447  0.50000
E115  E   0.25000  0.42553  0.50000
E116  E   0.25000  0.42553  0.00000
E117  E   0.25000  0.57447  0.00000
E118  E   0.25000  0.57447  0.50000
E119  E   0.25000  0.67553  0.00000
E120  E   0.25000  0.67553  0.50000
E121  E   0.25000  0.82447  0.00000
E122  E   0.25000  0.82447  0.50000
E123  E   0.25000  0.92553  0.00000
E124  E   0.25000  0.92553  0.50000
E125  E   0.26931  0.12500  0.45331
E126  E   0.26931  0.37500  0.95331
E127  E   0.26931  0.62500  0.54669
E128  E   0.26931  0.87500  0.04669
E129  E   0.28573  0.12500  0.03573
E130  E   0.28573  0.12500  0.03573
E131  E   0.28573  0.12500  0.96427
E132  E   0.28573  0.37500  0.46427
E133  E   0.28573  0.37500  0.53573
E134  E   0.28573  0.62500  0.03573
E135  E   0.28573  0.62500  0.03573
E136  E   0.28573  0.62500  0.96427
E137  E   0.28573  0.87500  0.46427
E138  E   0.28573  0.87500  0.53573
E139  E   0.28724  0.05093  0.12773
E140  E   0.28724  0.44907  0.62773
E141  E   0.28724  0.55093  0.87227
E142  E   0.28724  0.94907  0.37227
E143  E   0.29669  0.12500  0.51931
E144  E   0.29669  0.37500  0.01931
E145  E   0.29669  0.62500  0.48069
E146  E   0.29669  0.87500  0.98069
E147  E   0.30093  0.03724  0.62227
E148  E   0.30093  0.46276  0.12227
E149  E   0.30093  0.53724  0.37773
E150  E   0.30093  0.96276  0.87773
E151  E   0.32447  0.00000  0.25000
E152  E   0.32447  0.50000  0.75000
E153  E   0.32447  0.00000  0.75000
E154  E   0.32447  0.50000  0.25000
E155  E   0.37227  0.21276  0.44907
E156  E   0.37227  0.28724  0.94907
E157  E   0.37227  0.71276  0.55093
E158  E   0.37227  0.78724  0.05093
E159  E   0.37500  0.01931  0.29669
E160  E   0.37500  0.03573  0.71427
E161  E   0.37500  0.03573  0.78573
E162  E   0.37500  0.03573  0.71427
E163  E   0.37500  0.03573  0.78573
E164  E   0.37500  0.04669  0.23069
E165  E   0.37500  0.45331  0.73069
E166  E   0.37500  0.46427  0.21427
E167  E   0.37500  0.46427  0.28573
E168  E   0.37500  0.48069  0.79669
E169  E   0.37500  0.51931  0.70331
E170  E   0.37500  0.53573  0.21427
E171  E   0.37500  0.53573  0.28573
E172  E   0.37500  0.54669  0.76931
E173  E   0.37500  0.95331  0.26931
E174  E   0.37500  0.96427  0.71427
E175  E   0.37500  0.96427  0.78573
E176  E   0.37500  0.98069  0.20331
E177  E   0.37773  0.19907  0.03724
E178  E   0.37773  0.30093  0.53724
E179  E   0.37773  0.69907  0.96276
E180  E   0.37773  0.80093  0.46276
E181  E   0.42553  0.00000  0.75000
E182  E   0.42553  0.50000  0.25000
E183  E   0.42553  0.00000  0.25000
E184  E   0.42553  0.50000  0.75000
E185  E   0.44907  0.12773  0.71276
E186  E   0.44907  0.37227  0.21276
E187  E   0.44907  0.62773  0.28724
E188  E   0.44907  0.87227  0.78724
E189  E   0.45331  0.23069  0.62500
E190  E   0.45331  0.26931  0.12500
E191  E   0.45331  0.73069  0.37500
E192  E   0.45331  0.76931  0.87500
E193  E   0.46276  0.12227  0.30093
E194  E   0.46276  0.37773  0.80093
E195  E   0.46276  0.62227  0.69907
E196  E   0.46276  0.87773  0.19907
E197  E   0.46427  0.21427  0.37500
E198  E   0.46427  0.21427  0.87500
E199  E   0.46427  0.28573  0.37500
E200  E   0.46427  0.28573  0.87500
E201  E   0.46427  0.71427  0.12500
E202  E   0.46427  0.71427  0.62500
E203  E   0.46427  0.78573  0.12500
E204  E   0.46427  0.78573  0.62500
E205  E   0.48069  0.20331  0.12500
E206  E   0.48069  0.29669  0.62500
E207  E   0.48069  0.70331  0.87500
E208  E   0.48069  0.79669  0.37500
E209  E   0.50000  0.25000  0.07447
E210  E   0.50000  0.25000  0.17553
E211  E   0.50000  0.25000  0.32447
E212  E   0.50000  0.25000  0.42553
E213  E   0.50000  0.25000  0.57447
E214  E   0.50000  0.25000  0.67553
E215  E   0.50000  0.25000  0.82447
E216  E   0.50000  0.25000  0.92553
E217  E   0.50000  0.75000  0.07447
E218  E   0.50000  0.75000  0.17553
E219  E   0.50000  0.75000  0.32447
E220  E   0.50000  0.75000  0.42553
E221  E   0.50000  0.75000  0.57447
E222  E   0.50000  0.75000  0.67553
E223  E   0.50000  0.75000  0.82447
E224  E   0.50000  0.75000  0.92553
E225  E   0.51931  0.20331  0.62500
E226  E   0.51931  0.29669  0.12500
E227  E   0.51931  0.70331  0.37500
E228  E   0.51931  0.79669  0.87500
E229  E   0.53573  0.21427  0.37500
E230  E   0.53573  0.21427  0.87500
E231  E   0.53573  0.28573  0.37500
E232  E   0.53573  0.28573  0.87500
E233  E   0.53573  0.71427  0.12500
E234  E   0.53573  0.71427  0.62500
E235  E   0.53573  0.78573  0.12500
E236  E   0.53573  0.78573  0.62500
E237  E   0.53724  0.12227  0.80093
E238  E   0.53724  0.37773  0.30093
E239  E   0.53724  0.62227  0.19907
E240  E   0.53724  0.87773  0.69907
E241  E   0.54669  0.23069  0.12500
E242  E   0.54669  0.26931  0.62500
E243  E   0.54669  0.73069  0.87500
E244  E   0.54669  0.76931  0.37500
E245  E   0.55093  0.12773  0.21276
E246  E   0.55093  0.37227  0.71276
E247  E   0.55093  0.62773  0.78724
E248  E   0.55093  0.87227  0.28724
E249  E   0.57447  0.00000  0.25000
E250  E   0.57447  0.00000  0.75000
E251  E   0.57447  0.50000  0.25000
E252  E   0.57447  0.50000  0.75000
E253  E   0.62227  0.19907  0.53724
E254  E   0.62227  0.30093  0.03724
E255  E   0.62227  0.69907  0.46276
E256  E   0.62227  0.80093  0.96276
E257  E   0.62500  0.01931  0.79669
E258  E   0.62500  0.03573  0.21427
E259  E   0.62500  0.03573  0.28573
E260  E   0.62500  0.03573  0.21427
E261  E   0.62500  0.03573  0.28573
E262  E   0.62500  0.04669  0.73069
E263  E   0.62500  0.45331  0.23069
E264  E   0.62500  0.46427  0.71427
E265  E   0.62500  0.46427  0.78573
E266  E   0.62500  0.48069  0.29669
E267  E   0.62500  0.51931  0.20331
E268  E   0.62500  0.53573  0.71427
E269  E   0.62500  0.53573  0.78573
E270  E   0.62500  0.54669  0.26931
E271  E   0.62500  0.95331  0.76931
E272  E   0.62500  0.96427  0.21427
E273  E   0.62500  0.96427  0.28573
E274  E   0.62500  0.98069  0.70331
E275  E   0.62773  0.21276  0.94907
E276  E   0.62773  0.28724  0.44907
E277  E   0.62773  0.71276  0.05093
E278  E   0.62773  0.78724  0.55093
E279  E   0.67553  0.00000  0.25000
E280  E   0.67553  0.00000  0.75000
E281  E   0.67553  0.50000  0.25000
E282  E   0.67553  0.50000  0.75000
E283  E   0.69907  0.03724  0.12227
E284  E   0.69907  0.46276  0.62227
E285  E   0.69907  0.53724  0.87773
E286  E   0.69907  0.96276  0.37773
E287  E   0.70331  0.12500  0.01931
E288  E   0.70331  0.37500  0.51931
E289  E   0.70331  0.62500  0.98069
E290  E   0.70331  0.87500  0.48069
E291  E   0.71276  0.05093  0.62773
E292  E   0.71276  0.44907  0.12773
E293  E   0.71276  0.55093  0.37227
E294  E   0.71276  0.94907  0.87227
E295  E   0.71427  0.12500  0.46427
E296  E   0.71427  0.12500  0.53573
E297  E   0.71427  0.37500  0.03573
E298  E   0.71427  0.37500  0.03573
E299  E   0.71427  0.37500  0.96427
E300  E   0.71427  0.62500  0.46427
E301  E   0.71427  0.62500  0.53573
E302  E   0.71427  0.87500  0.03573
E303  E   0.71427  0.87500  0.03573
E304  E   0.71427  0.87500  0.96427
E305  E   0.73069  0.12500  0.95331
E306  E   0.73069  0.37500  0.45331
E307  E   0.73069  0.62500  0.04669
E308  E   0.73069  0.87500  0.54669
E309  E   0.75000  0.07447  0.50000
E310  E   0.75000  0.07447  0.00000
E311  E   0.75000  0.17553  0.50000
E312  E   0.75000  0.17553  0.00000
E313  E   0.75000  0.32447  0.50000
E314  E   0.75000  0.32447  0.00000
E315  E   0.75000  0.42553  0.00000
E316  E   0.75000  0.42553  0.50000
E317  E   0.75000  0.57447  0.00000
E318  E   0.75000  0.57447  0.50000
E319  E   0.75000  0.67553  0.00000
E320  E   0.75000  0.67553  0.50000
E321  E   0.75000  0.82447  0.00000
E322  E   0.75000  0.82447  0.50000
E323  E   0.75000  0.92553  0.00000
E324  E   0.75000  0.92553  0.50000
E325  E   0.76931  0.12500  0.04669
E326  E   0.76931  0.37500  0.54669
E327  E   0.76931  0.62500  0.95331
E328  E   0.76931  0.87500  0.45331
E329  E   0.78573  0.12500  0.46427
E330  E   0.78573  0.12500  0.53573
E331  E   0.78573  0.37500  0.03573
E332  E   0.78573  0.37500  0.03573
E333  E   0.78573  0.37500  0.96427
E334  E   0.78573  0.62500  0.46427
E335  E   0.78573  0.62500  0.53573
E336  E   0.78573  0.87500  0.03573
E337  E   0.78573  0.87500  0.03573
E338  E   0.78573  0.87500  0.96427
E339  E   0.78724  0.05093  0.37227
E340  E   0.78724  0.44907  0.87227
E341  E   0.78724  0.55093  0.62773
E342  E   0.78724  0.94907  0.12773
E343  E   0.79669  0.12500  0.98069
E344  E   0.79669  0.37500  0.48069
E345  E   0.79669  0.62500  0.01931
E346  E   0.79669  0.87500  0.51931
E347  E   0.80093  0.03724  0.87773
E348  E   0.80093  0.46276  0.37773
E349  E   0.80093  0.53724  0.12227
E350  E   0.80093  0.96276  0.62227
E351  E   0.82447  0.00000  0.25000
E352  E   0.82447  0.00000  0.75000
E353  E   0.82447  0.50000  0.25000
E354  E   0.82447  0.50000  0.75000
E355  E   0.87227  0.21276  0.05093
E356  E   0.87227  0.28724  0.55093
E357  E   0.87227  0.71276  0.94907
E358  E   0.87227  0.78724  0.44907
E359  E   0.87500  0.01931  0.20331
E360  E   0.87500  0.03573  0.71427
E361  E   0.87500  0.03573  0.78573
E362  E   0.87500  0.03573  0.71427
E363  E   0.87500  0.03573  0.78573
E364  E   0.87500  0.04669  0.26931
E365  E   0.87500  0.45331  0.76931
E366  E   0.87500  0.46427  0.21427
E367  E   0.87500  0.46427  0.28573
E368  E   0.87500  0.48069  0.70331
E369  E   0.87500  0.51931  0.79669
E370  E   0.87500  0.53573  0.21427
E371  E   0.87500  0.53573  0.28573
E372  E   0.87500  0.54669  0.73069
E373  E   0.87500  0.95331  0.23069
E374  E   0.87500  0.96427  0.71427
E375  E   0.87500  0.96427  0.78573
E376  E   0.87500  0.98069  0.29669
E377  E   0.87773  0.19907  0.46276
E378  E   0.87773  0.30093  0.96276
E379  E   0.87773  0.69907  0.53724
E380  E   0.87773  0.80093  0.03724
E381  E   0.92553  0.00000  0.25000
E382  E   0.92553  0.00000  0.75000
E383  E   0.92553  0.50000  0.25000
E384  E   0.92553  0.50000  0.75000
E385  E   0.94907  0.12773  0.78724
E386  E   0.94907  0.37227  0.28724
E387  E   0.94907  0.62773  0.21276
E388  E   0.94907  0.87227  0.71276
E389  E   0.95331  0.23069  0.87500
E390  E   0.95331  0.26931  0.37500
E391  E   0.95331  0.73069  0.12500
E392  E   0.95331  0.76931  0.62500
E393  E   0.96276  0.12227  0.19907
E394  E   0.96276  0.37773  0.69907
E395  E   0.96276  0.62227  0.80093
E396  E   0.96276  0.87773  0.30093
E397  E   0.96427  0.21427  0.12500
E398  E   0.96427  0.21427  0.62500
E399  E   0.96427  0.28573  0.12500
E400  E   0.96427  0.28573  0.62500
E401  E   0.96427  0.71427  0.37500
E402  E   0.96427  0.71427  0.87500
E403  E   0.96427  0.78573  0.37500
E404  E   0.96427  0.78573  0.87500
E405  E   0.98069  0.20331  0.37500
E406  E   0.98069  0.29669  0.87500
E407  E   0.98069  0.70331  0.62500
E408  E   0.98069  0.79669  0.12500
loop_
