data_ins_Pnnm  hall_number: 275, V_con: 4, EC_con: 3
_audit_creation_date              2025-03-05
_audit_creation_method            'MOFbuilder_1.0'
_symmetry_space_group_name_H-M    'P1'
_symmetry_Int_Tables_number       1
_symmetry_cell_setting            triclinic
loop_
_symmetry_equiv_pos_as_xyz
  x,y,z
_cell_length_a                    26.3262
_cell_length_b                    38.0377
_cell_length_c                    16.064799999999998
_cell_angle_alpha                 90.0
_cell_angle_beta                  90.0
_cell_angle_gamma                 90.0
loop_
_atom_site_label
_atom_site_type_symbol
_atom_site_fract_x
_atom_site_fract_y
_atom_site_fract_z
V1    V   0.00148  0.63144  0.00000
V2    V   0.49852  0.13144  0.50000
V3    V   0.50148  0.86856  0.50000
V4    V   0.99852  0.36856  0.00000
EC1    EC   0.18488  0.27975  0.50000
EC2    EC   0.31512  0.77975  0.00000
EC3    EC   0.68488  0.22025  0.00000
EC4    EC   0.81512  0.72025  0.50000
E1    E   0.00000  0.50000  0.00000
E2    E   0.09170  0.32415  0.25000
E3    E   0.09170  0.32415  0.75000
E4    E   0.15830  0.70560  0.00000
E5    E   0.34170  0.20560  0.50000
E6    E   0.40830  0.82415  0.25000
E7    E   0.40830  0.82415  0.75000
E8    E   0.50000  0.00000  0.50000
E9    E   0.59170  0.17585  0.25000
E10   E   0.59170  0.17585  0.75000
E11   E   0.65830  0.79440  0.50000
E12   E   0.84170  0.29440  0.00000
E13   E   0.90830  0.67585  0.25000
E14   E   0.90830  0.67585  0.75000
loop_
