data_itv_I-42d  hall_number: 399, V_con: 4, EC_con: 4
_audit_creation_date              2025-03-05
_audit_creation_method            'MOFbuilder_1.0'
_symmetry_space_group_name_H-M    'P1'
_symmetry_Int_Tables_number       1
_symmetry_cell_setting            triclinic
loop_
_symmetry_equiv_pos_as_xyz
  x,y,z
_cell_length_a                    29.8808
_cell_length_b                    29.8808
_cell_length_c                    14.2408
_cell_angle_alpha                 90.0
_cell_angle_beta                  90.0
_cell_angle_gamma                 90.0
loop_
_atom_site_label
_atom_site_type_symbol
_atom_site_fract_x
_atom_site_fract_y
_atom_site_fract_z
V1    V   0.00000  0.00000  0.50000
V2    V   0.00000  0.50000  0.75000
V3    V   0.50000  0.00000  0.25000
V4    V   0.50000  0.50000  0.00000
EC1    EC   0.13251  0.25000  0.12500
EC2    EC   0.25000  0.63251  0.37500
EC3    EC   0.25000  0.86749  0.87500
EC4    EC   0.36749  0.25000  0.62500
EC5    EC   0.63251  0.75000  0.62500
EC6    EC   0.75000  0.13251  0.87500
EC7    EC   0.75000  0.36749  0.37500
EC8    EC   0.86749  0.75000  0.12500
E1    E   0.06626  0.12500  0.31250
E2    E   0.06626  0.37500  0.93750
E3    E   0.12500  0.56626  0.56250
E4    E   0.12500  0.93374  0.68750
E5    E   0.25000  0.25000  0.37500
E6    E   0.25000  0.25000  0.87500
E7    E   0.25000  0.75000  0.12500
E8    E   0.25000  0.75000  0.62500
E9    E   0.37500  0.56626  0.18750
E10   E   0.37500  0.93374  0.06250
E11   E   0.43374  0.12500  0.43750
E12   E   0.43374  0.37500  0.81250
E13   E   0.56626  0.62500  0.81250
E14   E   0.56626  0.87500  0.43750
E15   E   0.62500  0.06626  0.06250
E16   E   0.62500  0.43374  0.18750
E17   E   0.75000  0.25000  0.12500
E18   E   0.75000  0.25000  0.62500
E19   E   0.75000  0.75000  0.37500
E20   E   0.75000  0.75000  0.87500
E21   E   0.87500  0.06626  0.68750
E22   E   0.87500  0.43374  0.56250
E23   E   0.93374  0.62500  0.93750
E24   E   0.93374  0.87500  0.31250
loop_
