data_jkz_Fmmm  hall_number: 334, V_con: 14, EC_con: 4
_audit_creation_date              2025-03-05
_audit_creation_method            'MOFbuilder_1.0'
_symmetry_space_group_name_H-M    'P1'
_symmetry_Int_Tables_number       1
_symmetry_cell_setting            triclinic
loop_
_symmetry_equiv_pos_as_xyz
  x,y,z
_cell_length_a                    17.9695
_cell_length_b                    10.1143
_cell_length_c                    28.9594
_cell_angle_alpha                 90.0
_cell_angle_beta                  90.0
_cell_angle_gamma                 90.0
loop_
_atom_site_label
_atom_site_type_symbol
_atom_site_fract_x
_atom_site_fract_y
_atom_site_fract_z
V1    V   0.00000  0.00000  0.50000
V2    V   0.00000  0.50000  0.00000
V3    V   0.50000  0.00000  0.00000
V4    V   0.50000  0.50000  0.50000
EC1    EC   0.25000  0.00000  0.25000
EC2    EC   0.25000  0.00000  0.75000
EC3    EC   0.25000  0.50000  0.25000
EC4    EC   0.25000  0.50000  0.75000
EC5    EC   0.75000  0.00000  0.25000
EC6    EC   0.75000  0.00000  0.75000
EC7    EC   0.75000  0.50000  0.25000
EC8    EC   0.75000  0.50000  0.75000
E1    E   0.00000  0.00000  0.00000
E2    E   0.00000  0.50000  0.50000
E3    E   0.12500  0.25000  0.12500
E4    E   0.12500  0.25000  0.37500
E5    E   0.12500  0.25000  0.62500
E6    E   0.12500  0.25000  0.87500
E7    E   0.12500  0.75000  0.12500
E8    E   0.12500  0.75000  0.37500
E9    E   0.12500  0.75000  0.62500
E10   E   0.12500  0.75000  0.87500
E11   E   0.25000  0.25000  0.00000
E12   E   0.25000  0.25000  0.50000
E13   E   0.25000  0.75000  0.00000
E14   E   0.25000  0.75000  0.50000
E15   E   0.37500  0.25000  0.12500
E16   E   0.37500  0.25000  0.37500
E17   E   0.37500  0.25000  0.62500
E18   E   0.37500  0.25000  0.87500
E19   E   0.37500  0.75000  0.12500
E20   E   0.37500  0.75000  0.37500
E21   E   0.37500  0.75000  0.62500
E22   E   0.37500  0.75000  0.87500
E23   E   0.50000  0.00000  0.50000
E24   E   0.50000  0.50000  0.00000
E25   E   0.62500  0.25000  0.12500
E26   E   0.62500  0.25000  0.37500
E27   E   0.62500  0.25000  0.62500
E28   E   0.62500  0.25000  0.87500
E29   E   0.62500  0.75000  0.12500
E30   E   0.62500  0.75000  0.37500
E31   E   0.62500  0.75000  0.62500
E32   E   0.62500  0.75000  0.87500
E33   E   0.75000  0.25000  0.00000
E34   E   0.75000  0.25000  0.50000
E35   E   0.75000  0.75000  0.00000
E36   E   0.75000  0.75000  0.50000
E37   E   0.87500  0.25000  0.12500
E38   E   0.87500  0.25000  0.37500
E39   E   0.87500  0.25000  0.62500
E40   E   0.87500  0.25000  0.87500
E41   E   0.87500  0.75000  0.12500
E42   E   0.87500  0.75000  0.37500
E43   E   0.87500  0.75000  0.62500
E44   E   0.87500  0.75000  0.87500
loop_
