data_jxj_P42/ncm:2  hall_number: 423, V_con: 6, EC_con: 3
_audit_creation_date              2025-03-05
_audit_creation_method            'MOFbuilder_1.0'
_symmetry_space_group_name_H-M    'P1'
_symmetry_Int_Tables_number       1
_symmetry_cell_setting            triclinic
loop_
_symmetry_equiv_pos_as_xyz
  x,y,z
_cell_length_a                    23.616100000000003
_cell_length_b                    23.616100000000003
_cell_length_c                    29.6917
_cell_angle_alpha                 90.0
_cell_angle_beta                  90.0
_cell_angle_gamma                 90.0
loop_
_atom_site_label
_atom_site_type_symbol
_atom_site_fract_x
_atom_site_fract_y
_atom_site_fract_z
V1    V   0.25000  0.25000  0.12195
V2    V   0.25000  0.25000  0.62195
V3    V   0.75000  0.75000  0.37805
V4    V   0.75000  0.75000  0.87805
EC1    EC   0.04937  0.04937  0.37195
EC2    EC   0.04937  0.45063  0.87195
EC3    EC   0.45063  0.04937  0.87195
EC4    EC   0.45063  0.45063  0.37195
EC5    EC   0.54937  0.54937  0.62805
EC6    EC   0.54937  0.95063  0.12805
EC7    EC   0.95063  0.54937  0.12805
EC8    EC   0.95063  0.95063  0.62805
E1    E   0.10032  0.10032  0.62500
E2    E   0.10032  0.39968  0.12500
E3    E   0.10032  0.10032  0.62500
E4    E   0.10032  0.39968  0.12500
E5    E   0.14968  0.14968  0.49695
E6    E   0.14968  0.35032  0.99695
E7    E   0.14968  0.14968  0.49695
E8    E   0.14968  0.14968  0.24695
E9    E   0.14968  0.35032  0.74695
E10   E   0.14968  0.35032  0.99695
E11   E   0.35032  0.14968  0.99695
E12   E   0.35032  0.14968  0.74695
E13   E   0.35032  0.35032  0.24695
E14   E   0.35032  0.35032  0.49695
E15   E   0.35032  0.14968  0.99695
E16   E   0.35032  0.35032  0.49695
E17   E   0.39968  0.10032  0.12500
E18   E   0.39968  0.10032  0.12500
E19   E   0.39968  0.39968  0.62500
E20   E   0.60032  0.60032  0.37500
E21   E   0.60032  0.89968  0.87500
E22   E   0.64968  0.64968  0.50305
E23   E   0.64968  0.64968  0.75305
E24   E   0.64968  0.85032  0.00305
E25   E   0.64968  0.85032  0.25305
E26   E   0.85032  0.64968  0.00305
E27   E   0.85032  0.64968  0.25305
E28   E   0.85032  0.85032  0.50305
E29   E   0.85032  0.85032  0.75305
E30   E   0.89968  0.60032  0.87500
E31   E   0.89968  0.89968  0.37500
loop_
