data_kdd_Cmc21  hall_number: 176, V_con: 5, EC_con: 3
_audit_creation_date              2025-03-05
_audit_creation_method            'MOFbuilder_1.0'
_symmetry_space_group_name_H-M    'P1'
_symmetry_Int_Tables_number       1
_symmetry_cell_setting            triclinic
loop_
_symmetry_equiv_pos_as_xyz
  x,y,z
_cell_length_a                    17.3408
_cell_length_b                    36.0462
_cell_length_c                    16.625700000000002
_cell_angle_alpha                 90.0
_cell_angle_beta                  90.0
_cell_angle_gamma                 90.0
loop_
_atom_site_label
_atom_site_type_symbol
_atom_site_fract_x
_atom_site_fract_y
_atom_site_fract_z
V1    V   0.00000  0.07710  0.00000
V2    V   0.00000  0.92290  0.50000
V3    V   0.50000  0.42290  0.50000
V4    V   0.50000  0.57710  0.00000
EC1    EC   0.00000  0.30790  0.33376
EC2    EC   0.00000  0.69210  0.83376
EC3    EC   0.50000  0.19210  0.83376
EC4    EC   0.50000  0.80790  0.33376
E1    E   0.00000  0.00000  0.25000
E2    E   0.00000  0.00000  0.75000
E3    E   0.00000  0.19250  0.16688
E4    E   0.00000  0.80750  0.66688
E5    E   0.25000  0.13460  0.91688
E6    E   0.25000  0.36540  0.41688
E7    E   0.25000  0.63460  0.91688
E8    E   0.25000  0.86540  0.41688
E9    E   0.50000  0.30750  0.66688
E10   E   0.50000  0.50000  0.25000
E11   E   0.50000  0.50000  0.75000
E12   E   0.50000  0.69250  0.16688
E13   E   0.75000  0.13460  0.91688
E14   E   0.75000  0.36540  0.41688
E15   E   0.75000  0.63460  0.91688
E16   E   0.75000  0.86540  0.41688
loop_
