data_ken_P63/mmc  hall_number: 488, V_con: 8, EC_con: 4
_audit_creation_date              2025-03-05
_audit_creation_method            'MOFbuilder_1.0'
_symmetry_space_group_name_H-M    'P1'
_symmetry_Int_Tables_number       1
_symmetry_cell_setting            triclinic
loop_
_symmetry_equiv_pos_as_xyz
  x,y,z
_cell_length_a                    16.3292
_cell_length_b                    16.3292
_cell_length_c                    26.669
_cell_angle_alpha                 90.0
_cell_angle_beta                  90.0
_cell_angle_gamma                 120.0
loop_
_atom_site_label
_atom_site_type_symbol
_atom_site_fract_x
_atom_site_fract_y
_atom_site_fract_z
V1    V   0.33333  0.66666  0.75000
V2    V   0.33333  0.66667  0.75000
V3    V   0.33334  0.66667  0.75000
V4    V   0.66666  0.33333  0.25000
V5    V   0.66667  0.33333  0.25000
V6    V   0.66667  0.33334  0.25000
EC1    EC   0.33333  0.66666  0.12497
EC2    EC   0.33333  0.66666  0.37503
EC3    EC   0.33333  0.66667  0.12497
EC4    EC   0.33333  0.66667  0.37503
EC5    EC   0.33334  0.66667  0.12497
EC6    EC   0.33334  0.66667  0.37503
EC7    EC   0.66666  0.33333  0.62497
EC8    EC   0.66666  0.33333  0.87503
EC9    EC   0.66667  0.33333  0.62497
EC10   EC   0.66667  0.33333  0.87503
EC11   EC   0.66667  0.33334  0.62497
EC12   EC   0.66667  0.33334  0.87503
E1    E   0.00000  0.50000  0.18748
E2    E   0.00000  0.50000  0.31252
E3    E   0.00000  0.50000  0.68748
E4    E   0.00000  0.50000  0.81252
E5    E   0.33333  0.66666  0.56251
E6    E   0.33333  0.66666  0.93749
E7    E   0.33333  0.66667  0.56251
E8    E   0.33333  0.66667  0.93749
E9    E   0.33334  0.66667  0.56251
E10   E   0.33334  0.66667  0.93749
E11   E   0.50000  0.00000  0.18748
E12   E   0.50000  0.00000  0.31252
E13   E   0.50000  0.00000  0.68748
E14   E   0.50000  0.00000  0.81252
E15   E   0.50000  0.50000  0.18748
E16   E   0.50000  0.50000  0.31252
E17   E   0.50000  0.50000  0.68748
E18   E   0.50000  0.50000  0.81252
E19   E   0.66666  0.33333  0.06251
E20   E   0.66666  0.33333  0.43749
E21   E   0.66667  0.33333  0.06251
E22   E   0.66667  0.33333  0.43749
E23   E   0.66667  0.33334  0.06251
E24   E   0.66667  0.33334  0.43749
loop_
