data_khn_I4/mcm  hall_number: 425, V_con: 5, EC_con: 3
_audit_creation_date              2025-03-05
_audit_creation_method            'MOFbuilder_1.0'
_symmetry_space_group_name_H-M    'P1'
_symmetry_Int_Tables_number       1
_symmetry_cell_setting            triclinic
loop_
_symmetry_equiv_pos_as_xyz
  x,y,z
_cell_length_a                    56.043000000000006
_cell_length_b                    56.043000000000006
_cell_length_c                    59.238600000000005
_cell_angle_alpha                 90.0
_cell_angle_beta                  90.0
_cell_angle_gamma                 90.0
loop_
_atom_site_label
_atom_site_type_symbol
_atom_site_fract_x
_atom_site_fract_y
_atom_site_fract_z
V1    V   0.04828  0.11657  0.17902
V2    V   0.04828  0.11657  0.82098
V3    V   0.04828  0.88343  0.32098
V4    V   0.04828  0.88343  0.67902
V5    V   0.11657  0.04828  0.32098
V6    V   0.11657  0.04828  0.67902
V7    V   0.11657  0.95172  0.17902
V8    V   0.11657  0.95172  0.82098
V9    V   0.38343  0.45172  0.17902
V10   V   0.38343  0.45172  0.82098
V11   V   0.38343  0.54828  0.32098
V12   V   0.38343  0.54828  0.67902
V13   V   0.45172  0.38343  0.32098
V14   V   0.45172  0.38343  0.67902
V15   V   0.45172  0.61657  0.17902
V16   V   0.45172  0.61657  0.82098
V17   V   0.54828  0.38343  0.17902
V18   V   0.54828  0.38343  0.82098
V19   V   0.54828  0.61657  0.32098
V20   V   0.54828  0.61657  0.67902
V21   V   0.61657  0.45172  0.32098
V22   V   0.61657  0.45172  0.67902
V23   V   0.61657  0.54828  0.17902
V24   V   0.61657  0.54828  0.82098
V25   V   0.88343  0.04828  0.17902
V26   V   0.88343  0.04828  0.82098
V27   V   0.88343  0.95172  0.32098
V28   V   0.88343  0.95172  0.67902
V29   V   0.95172  0.11657  0.32098
V30   V   0.95172  0.11657  0.67902
V31   V   0.95172  0.88343  0.17902
V32   V   0.95172  0.88343  0.82098
EC1    EC   0.15239  0.22144  0.08440
EC2    EC   0.15239  0.22144  0.91560
EC3    EC   0.15239  0.77856  0.41560
EC4    EC   0.15239  0.77856  0.58440
EC5    EC   0.22144  0.15239  0.41560
EC6    EC   0.22144  0.15239  0.58440
EC7    EC   0.22144  0.84761  0.08440
EC8    EC   0.22144  0.84761  0.91560
EC9    EC   0.27856  0.34761  0.08440
EC10   EC   0.27856  0.34761  0.91560
EC11   EC   0.27856  0.65239  0.41560
EC12   EC   0.27856  0.65239  0.58440
EC13   EC   0.34761  0.27856  0.41560
EC14   EC   0.34761  0.27856  0.58440
EC15   EC   0.34761  0.72144  0.08440
EC16   EC   0.34761  0.72144  0.91560
EC17   EC   0.65239  0.27856  0.08440
EC18   EC   0.65239  0.27856  0.91560
EC19   EC   0.65239  0.72144  0.41560
EC20   EC   0.65239  0.72144  0.58440
EC21   EC   0.72144  0.34761  0.41560
EC22   EC   0.72144  0.34761  0.58440
EC23   EC   0.72144  0.65239  0.08440
EC24   EC   0.72144  0.65239  0.91560
EC25   EC   0.77856  0.15239  0.08440
EC26   EC   0.77856  0.15239  0.91560
EC27   EC   0.77856  0.84761  0.41560
EC28   EC   0.77856  0.84761  0.58440
EC29   EC   0.84761  0.22144  0.41560
EC30   EC   0.84761  0.22144  0.58440
EC31   EC   0.84761  0.77856  0.08440
EC32   EC   0.84761  0.77856  0.91560
E1    E   0.00000  0.11657  0.25000
E2    E   0.00000  0.11657  0.75000
E3    E   0.00000  0.88343  0.25000
E4    E   0.00000  0.88343  0.75000
E5    E   0.03414  0.08243  0.32098
E6    E   0.03414  0.08243  0.67902
E7    E   0.03414  0.91757  0.17902
E8    E   0.03414  0.91757  0.82098
E9    E   0.08243  0.03414  0.17902
E10   E   0.08243  0.03414  0.82098
E11   E   0.08243  0.08243  0.25000
E12   E   0.08243  0.08243  0.75000
E13   E   0.08243  0.91757  0.25000
E14   E   0.08243  0.91757  0.75000
E15   E   0.08243  0.96586  0.32098
E16   E   0.08243  0.96586  0.67902
E17   E   0.10034  0.16900  0.13171
E18   E   0.10034  0.16900  0.86829
E19   E   0.10034  0.83100  0.36829
E20   E   0.10034  0.83100  0.63171
E21   E   0.11657  0.00000  0.25000
E22   E   0.11657  0.00000  0.75000
E23   E   0.15239  0.22144  0.00000
E24   E   0.15239  0.77856  0.50000
E25   E   0.16900  0.10034  0.36829
E26   E   0.16900  0.10034  0.63171
E27   E   0.16900  0.89966  0.13171
E28   E   0.16900  0.89966  0.86829
E29   E   0.21548  0.28452  0.08440
E30   E   0.21548  0.28452  0.91560
E31   E   0.21548  0.71548  0.41560
E32   E   0.21548  0.71548  0.58440
E33   E   0.22144  0.15239  0.50000
E34   E   0.22144  0.84761  0.00000
E35   E   0.27856  0.34761  0.00000
E36   E   0.27856  0.65239  0.50000
E37   E   0.28452  0.21548  0.41560
E38   E   0.28452  0.21548  0.58440
E39   E   0.28452  0.78452  0.08440
E40   E   0.28452  0.78452  0.91560
E41   E   0.33100  0.39966  0.13171
E42   E   0.33100  0.39966  0.86829
E43   E   0.33100  0.60034  0.36829
E44   E   0.33100  0.60034  0.63171
E45   E   0.34761  0.27856  0.50000
E46   E   0.34761  0.72144  0.00000
E47   E   0.38343  0.50000  0.25000
E48   E   0.38343  0.50000  0.75000
E49   E   0.39966  0.33100  0.36829
E50   E   0.39966  0.33100  0.63171
E51   E   0.39966  0.66900  0.13171
E52   E   0.39966  0.66900  0.86829
E53   E   0.41757  0.41757  0.25000
E54   E   0.41757  0.41757  0.75000
E55   E   0.41757  0.46586  0.32098
E56   E   0.41757  0.46586  0.67902
E57   E   0.41757  0.53414  0.17902
E58   E   0.41757  0.53414  0.82098
E59   E   0.41757  0.58243  0.25000
E60   E   0.41757  0.58243  0.75000
E61   E   0.46586  0.41757  0.17902
E62   E   0.46586  0.41757  0.82098
E63   E   0.46586  0.58243  0.32098
E64   E   0.46586  0.58243  0.67902
E65   E   0.50000  0.38343  0.25000
E66   E   0.50000  0.38343  0.75000
E67   E   0.50000  0.61657  0.25000
E68   E   0.50000  0.61657  0.75000
E69   E   0.53414  0.41757  0.32098
E70   E   0.53414  0.41757  0.67902
E71   E   0.53414  0.58243  0.17902
E72   E   0.53414  0.58243  0.82098
E73   E   0.58243  0.41757  0.25000
E74   E   0.58243  0.41757  0.75000
E75   E   0.58243  0.46586  0.17902
E76   E   0.58243  0.46586  0.82098
E77   E   0.58243  0.53414  0.32098
E78   E   0.58243  0.53414  0.67902
E79   E   0.58243  0.58243  0.25000
E80   E   0.58243  0.58243  0.75000
E81   E   0.60034  0.33100  0.13171
E82   E   0.60034  0.33100  0.86829
E83   E   0.60034  0.66900  0.36829
E84   E   0.60034  0.66900  0.63171
E85   E   0.61657  0.50000  0.25000
E86   E   0.61657  0.50000  0.75000
E87   E   0.65239  0.27856  0.00000
E88   E   0.65239  0.72144  0.50000
E89   E   0.66900  0.39966  0.36829
E90   E   0.66900  0.39966  0.63171
E91   E   0.66900  0.60034  0.13171
E92   E   0.66900  0.60034  0.86829
E93   E   0.71548  0.21548  0.08440
E94   E   0.71548  0.21548  0.91560
E95   E   0.71548  0.78452  0.41560
E96   E   0.71548  0.78452  0.58440
E97   E   0.72144  0.34761  0.50000
E98   E   0.72144  0.65239  0.00000
E99   E   0.77856  0.15239  0.00000
E100  E   0.77856  0.84761  0.50000
E101  E   0.78452  0.28452  0.41560
E102  E   0.78452  0.28452  0.58440
E103  E   0.78452  0.71548  0.08440
E104  E   0.78452  0.71548  0.91560
E105  E   0.83100  0.10034  0.13171
E106  E   0.83100  0.10034  0.86829
E107  E   0.83100  0.89966  0.36829
E108  E   0.83100  0.89966  0.63171
E109  E   0.84761  0.22144  0.50000
E110  E   0.84761  0.77856  0.00000
E111  E   0.88343  0.00000  0.25000
E112  E   0.88343  0.00000  0.75000
E113  E   0.89966  0.16900  0.36829
E114  E   0.89966  0.16900  0.63171
E115  E   0.89966  0.83100  0.13171
E116  E   0.89966  0.83100  0.86829
E117  E   0.91757  0.03414  0.32098
E118  E   0.91757  0.03414  0.67902
E119  E   0.91757  0.08243  0.25000
E120  E   0.91757  0.08243  0.75000
E121  E   0.91757  0.91757  0.25000
E122  E   0.91757  0.91757  0.75000
E123  E   0.91757  0.96586  0.17902
E124  E   0.91757  0.96586  0.82098
E125  E   0.96586  0.08243  0.17902
E126  E   0.96586  0.08243  0.82098
E127  E   0.96586  0.91757  0.32098
E128  E   0.96586  0.91757  0.67902
loop_
