data_kkm_Pbam  hall_number: 263, V_con: 6, EC_con: 3
_audit_creation_date              2025-03-05
_audit_creation_method            'MOFbuilder_1.0'
_symmetry_space_group_name_H-M    'P1'
_symmetry_Int_Tables_number       1
_symmetry_cell_setting            triclinic
loop_
_symmetry_equiv_pos_as_xyz
  x,y,z
_cell_length_a                    34.8328
_cell_length_b                    24.525800000000004
_cell_length_c                    10.039100000000001
_cell_angle_alpha                 90.0
_cell_angle_beta                  90.0
_cell_angle_gamma                 90.0
loop_
_atom_site_label
_atom_site_type_symbol
_atom_site_fract_x
_atom_site_fract_y
_atom_site_fract_z
V1    V   0.06640  0.31908  0.00000
V2    V   0.43360  0.81908  0.00000
V3    V   0.56640  0.18092  0.00000
V4    V   0.93360  0.68092  0.00000
EC1    EC   0.15831  0.93359  0.00000
EC2    EC   0.34169  0.43359  0.00000
EC3    EC   0.65831  0.56641  0.00000
EC4    EC   0.84169  0.06641  0.00000
E1    E   0.00000  0.50000  0.00000
E2    E   0.04595  0.80725  0.00000
E3    E   0.06640  0.31908  0.50000
E4    E   0.11235  0.12633  0.00000
E5    E   0.20405  0.37633  0.00000
E6    E   0.29595  0.87633  0.00000
E7    E   0.38765  0.62633  0.00000
E8    E   0.43360  0.81908  0.50000
E9    E   0.45405  0.30725  0.00000
E10   E   0.50000  0.00000  0.00000
E11   E   0.54595  0.69275  0.00000
E12   E   0.56640  0.18092  0.50000
E13   E   0.61235  0.37367  0.00000
E14   E   0.70405  0.12367  0.00000
E15   E   0.79595  0.62367  0.00000
E16   E   0.88765  0.87367  0.00000
E17   E   0.93360  0.68092  0.50000
E18   E   0.95405  0.19275  0.00000
loop_
