data_kxe_R-3c:H  hall_number: 167, V_con: 12, EC_con: 3
_audit_creation_date              2025-03-05
_audit_creation_method            'MOFbuilder_1.0'
_symmetry_space_group_name_H-M    'P1'
_symmetry_Int_Tables_number       1
_symmetry_cell_setting            triclinic
loop_
_symmetry_equiv_pos_as_xyz
  x,y,z
_cell_length_a                    25.7815
_cell_length_b                    25.7815
_cell_length_c                    63.1483
_cell_angle_alpha                 90.0
_cell_angle_beta                  90.0
_cell_angle_gamma                 120.0
loop_
_atom_site_label
_atom_site_type_symbol
_atom_site_fract_x
_atom_site_fract_y
_atom_site_fract_z
V1    V   0.00000  0.00000  0.00000
V2    V   0.00000  0.50000  0.50000
V3    V   0.50000  0.00000  0.00000
V4    V   0.50000  0.50000  0.50000
EC1    EC   0.24218  0.24202  0.62101
EC2    EC   0.24218  0.25798  0.12101
EC3    EC   0.74218  0.74202  0.87899
EC4    EC   0.74218  0.75798  0.37899
E1    E   0.00790  0.62109  0.56051
E2    E   0.00790  0.87891  0.06051
E3    E   0.04557  0.65877  0.52283
E4    E   0.04557  0.84123  0.02283
E5    E   0.33333  0.16667  0.16667
E6    E   0.33333  0.33333  0.66667
E7    E   0.50790  0.12109  0.93949
E8    E   0.50790  0.37891  0.43949
E9    E   0.54557  0.15877  0.97717
E10   E   0.54557  0.34123  0.47717
E11   E   0.83333  0.66667  0.33333
E12   E   0.83333  0.83333  0.83333
loop_
