data_lbt_I4/mmm  hall_number: 424, V_con: 4, EC_con: 4
_audit_creation_date              2025-03-05
_audit_creation_method            'MOFbuilder_1.0'
_symmetry_space_group_name_H-M    'P1'
_symmetry_Int_Tables_number       1
_symmetry_cell_setting            triclinic
loop_
_symmetry_equiv_pos_as_xyz
  x,y,z
_cell_length_a                    44.8121
_cell_length_b                    44.8121
_cell_length_c                    33.8955
_cell_angle_alpha                 90.0
_cell_angle_beta                  90.0
_cell_angle_gamma                 90.0
loop_
_atom_site_label
_atom_site_type_symbol
_atom_site_fract_x
_atom_site_fract_y
_atom_site_fract_z
V1    V   0.19326  0.19326  0.35249
V2    V   0.19326  0.19326  0.64751
V3    V   0.19326  0.80674  0.35249
V4    V   0.19326  0.80674  0.64751
V5    V   0.30674  0.30674  0.14751
V6    V   0.30674  0.30674  0.85249
V7    V   0.30674  0.69326  0.14751
V8    V   0.30674  0.69326  0.85249
V9    V   0.69326  0.30674  0.14751
V10   V   0.69326  0.30674  0.85249
V11   V   0.69326  0.69326  0.14751
V12   V   0.69326  0.69326  0.85249
V13   V   0.80674  0.19326  0.35249
V14   V   0.80674  0.19326  0.64751
V15   V   0.80674  0.80674  0.35249
V16   V   0.80674  0.80674  0.64751
EC1    EC   0.00000  0.19412  0.50000
EC2    EC   0.00000  0.80588  0.50000
EC3    EC   0.19412  0.00000  0.50000
EC4    EC   0.30588  0.50000  0.00000
EC5    EC   0.50000  0.30588  0.00000
EC6    EC   0.50000  0.69412  0.00000
EC7    EC   0.69412  0.50000  0.00000
EC8    EC   0.80588  0.00000  0.50000
E1    E   0.09663  0.19369  0.42624
E2    E   0.09663  0.19369  0.57376
E3    E   0.09663  0.80631  0.42624
E4    E   0.09663  0.80631  0.57376
E5    E   0.19326  0.19326  0.50000
E6    E   0.19326  0.80674  0.50000
E7    E   0.19369  0.09663  0.42624
E8    E   0.19369  0.09663  0.57376
E9    E   0.19369  0.90337  0.42624
E10   E   0.19369  0.90337  0.57376
E11   E   0.25000  0.25000  0.25000
E12   E   0.25000  0.25000  0.75000
E13   E   0.25000  0.75000  0.25000
E14   E   0.25000  0.75000  0.75000
E15   E   0.30631  0.40337  0.07376
E16   E   0.30631  0.40337  0.92624
E17   E   0.30631  0.59663  0.07376
E18   E   0.30631  0.59663  0.92624
E19   E   0.30674  0.30674  0.00000
E20   E   0.30674  0.69326  0.00000
E21   E   0.40337  0.30631  0.07376
E22   E   0.40337  0.30631  0.92624
E23   E   0.40337  0.69369  0.07376
E24   E   0.40337  0.69369  0.92624
E25   E   0.59663  0.30631  0.07376
E26   E   0.59663  0.30631  0.92624
E27   E   0.59663  0.69369  0.07376
E28   E   0.59663  0.69369  0.92624
E29   E   0.69326  0.30674  0.00000
E30   E   0.69326  0.69326  0.00000
E31   E   0.69369  0.40337  0.07376
E32   E   0.69369  0.40337  0.92624
E33   E   0.69369  0.59663  0.07376
E34   E   0.69369  0.59663  0.92624
E35   E   0.75000  0.25000  0.25000
E36   E   0.75000  0.25000  0.75000
E37   E   0.75000  0.75000  0.25000
E38   E   0.75000  0.75000  0.75000
E39   E   0.80631  0.09663  0.42624
E40   E   0.80631  0.09663  0.57376
E41   E   0.80631  0.90337  0.42624
E42   E   0.80631  0.90337  0.57376
E43   E   0.80674  0.19326  0.50000
E44   E   0.80674  0.80674  0.50000
E45   E   0.90337  0.19369  0.42624
E46   E   0.90337  0.19369  0.57376
E47   E   0.90337  0.80631  0.42624
E48   E   0.90337  0.80631  0.57376
loop_
