data_lcs-a_Ia-3d  hall_number: 530, V_con: 4
_audit_creation_date              2025-03-05
_audit_creation_method            'MOFbuilder_1.0'
_symmetry_space_group_name_H-M    'P1'
_symmetry_Int_Tables_number       1
_symmetry_cell_setting            triclinic
loop_
_symmetry_equiv_pos_as_xyz
  x,y,z
_cell_length_a                    71.67779999999999
_cell_length_b                    71.67779999999999
_cell_length_c                    71.67779999999999
_cell_angle_alpha                 90.0
_cell_angle_beta                  90.0
_cell_angle_gamma                 90.0
loop_
_atom_site_label
_atom_site_type_symbol
_atom_site_fract_x
_atom_site_fract_y
_atom_site_fract_z
V1    V   0.02646  0.18546  0.82567
V2    V   0.02646  0.31454  0.32567
V3    V   0.02646  0.68546  0.17433
V4    V   0.02646  0.81454  0.67433
V5    V   0.06454  0.22354  0.42433
V6    V   0.06454  0.27646  0.92433
V7    V   0.06454  0.72354  0.57567
V8    V   0.06454  0.77646  0.07567
V9    V   0.07567  0.06454  0.77646
V10   V   0.07567  0.43546  0.27646
V11   V   0.07567  0.56454  0.22354
V12   V   0.07567  0.93546  0.72354
V13   V   0.17433  0.02646  0.68546
V14   V   0.17433  0.47354  0.18546
V15   V   0.17433  0.52646  0.31454
V16   V   0.17433  0.97354  0.81454
V17   V   0.18546  0.17433  0.47354
V18   V   0.18546  0.32567  0.97354
V19   V   0.18546  0.67433  0.52646
V20   V   0.18546  0.82567  0.02646
V21   V   0.22354  0.07567  0.56454
V22   V   0.22354  0.42433  0.06454
V23   V   0.22354  0.57567  0.43546
V24   V   0.22354  0.92433  0.93546
V25   V   0.27646  0.07567  0.43546
V26   V   0.27646  0.42433  0.93546
V27   V   0.27646  0.57567  0.56454
V28   V   0.27646  0.92433  0.06454
V29   V   0.31454  0.17433  0.52646
V30   V   0.31454  0.32567  0.02646
V31   V   0.31454  0.67433  0.47354
V32   V   0.31454  0.82567  0.97354
V33   V   0.32567  0.02646  0.31454
V34   V   0.32567  0.47354  0.81454
V35   V   0.32567  0.52646  0.68546
V36   V   0.32567  0.97354  0.18546
V37   V   0.42433  0.06454  0.22354
V38   V   0.42433  0.43546  0.72354
V39   V   0.42433  0.56454  0.77646
V40   V   0.42433  0.93546  0.27646
V41   V   0.43546  0.22354  0.57567
V42   V   0.43546  0.27646  0.07567
V43   V   0.43546  0.72354  0.42433
V44   V   0.43546  0.77646  0.92433
V45   V   0.47354  0.18546  0.17433
V46   V   0.47354  0.31454  0.67433
V47   V   0.47354  0.68546  0.82567
V48   V   0.47354  0.81454  0.32567
V49   V   0.52646  0.18546  0.67433
V50   V   0.52646  0.31454  0.17433
V51   V   0.52646  0.68546  0.32567
V52   V   0.52646  0.81454  0.82567
V53   V   0.56454  0.22354  0.07567
V54   V   0.56454  0.27646  0.57567
V55   V   0.56454  0.72354  0.92433
V56   V   0.56454  0.77646  0.42433
V57   V   0.57567  0.06454  0.72354
V58   V   0.57567  0.43546  0.22354
V59   V   0.57567  0.56454  0.27646
V60   V   0.57567  0.93546  0.77646
V61   V   0.67433  0.02646  0.81454
V62   V   0.67433  0.47354  0.31454
V63   V   0.67433  0.52646  0.18546
V64   V   0.67433  0.97354  0.68546
V65   V   0.68546  0.17433  0.02646
V66   V   0.68546  0.32567  0.52646
V67   V   0.68546  0.67433  0.97354
V68   V   0.68546  0.82567  0.47354
V69   V   0.72354  0.07567  0.93546
V70   V   0.72354  0.42433  0.43546
V71   V   0.72354  0.57567  0.06454
V72   V   0.72354  0.92433  0.56454
V73   V   0.77646  0.07567  0.06454
V74   V   0.77646  0.42433  0.56454
V75   V   0.77646  0.57567  0.93546
V76   V   0.77646  0.92433  0.43546
V77   V   0.81454  0.17433  0.97354
V78   V   0.81454  0.32567  0.47354
V79   V   0.81454  0.67433  0.02646
V80   V   0.81454  0.82567  0.52646
V81   V   0.82567  0.02646  0.18546
V82   V   0.82567  0.47354  0.68546
V83   V   0.82567  0.52646  0.81454
V84   V   0.82567  0.97354  0.31454
V85   V   0.92433  0.06454  0.27646
V86   V   0.92433  0.43546  0.77646
V87   V   0.92433  0.56454  0.72354
V88   V   0.92433  0.93546  0.22354
V89   V   0.93546  0.22354  0.92433
V90   V   0.93546  0.27646  0.42433
V91   V   0.93546  0.72354  0.07567
V92   V   0.93546  0.77646  0.57567
V93   V   0.97354  0.18546  0.32567
V94   V   0.97354  0.31454  0.82567
V95   V   0.97354  0.68546  0.67433
V96   V   0.97354  0.81454  0.17433
E1    E   0.00000  0.25000  0.32567
E2    E   0.00000  0.25000  0.42433
E3    E   0.00000  0.25000  0.82567
E4    E   0.00000  0.25000  0.92433
E5    E   0.00000  0.75000  0.07567
E6    E   0.00000  0.75000  0.17433
E7    E   0.00000  0.75000  0.57567
E8    E   0.00000  0.75000  0.67433
E9    E   0.01904  0.20450  0.37500
E10   E   0.01904  0.29550  0.87500
E11   E   0.01904  0.70450  0.62500
E12   E   0.01904  0.79550  0.12500
E13   E   0.04550  0.23096  0.87500
E14   E   0.04550  0.26904  0.37500
E15   E   0.04550  0.73096  0.12500
E16   E   0.04550  0.76904  0.62500
E17   E   0.05107  0.12500  0.80107
E18   E   0.05107  0.37500  0.30107
E19   E   0.05107  0.62500  0.19893
E20   E   0.05107  0.87500  0.69893
E21   E   0.05107  0.12500  0.80107
E22   E   0.05107  0.37500  0.30107
E23   E   0.05107  0.62500  0.19893
E24   E   0.05107  0.87500  0.69893
E25   E   0.07567  0.00000  0.75000
E26   E   0.07567  0.50000  0.25000
E27   E   0.12500  0.01904  0.79550
E28   E   0.12500  0.04550  0.73096
E29   E   0.12500  0.19893  0.44893
E30   E   0.12500  0.30107  0.94893
E31   E   0.12500  0.45450  0.23096
E32   E   0.12500  0.48096  0.29550
E33   E   0.12500  0.51904  0.20450
E34   E   0.12500  0.54550  0.26904
E35   E   0.12500  0.69893  0.55107
E36   E   0.12500  0.80107  0.05107
E37   E   0.12500  0.80107  0.05107
E38   E   0.12500  0.95450  0.76904
E39   E   0.12500  0.98096  0.70450
E40   E   0.17433  0.00000  0.75000
E41   E   0.17433  0.50000  0.25000
E42   E   0.19893  0.05107  0.62500
E43   E   0.19893  0.05107  0.62500
E44   E   0.19893  0.44893  0.12500
E45   E   0.19893  0.55107  0.37500
E46   E   0.19893  0.94893  0.87500
E47   E   0.20450  0.12500  0.51904
E48   E   0.20450  0.37500  0.01904
E49   E   0.20450  0.62500  0.48096
E50   E   0.20450  0.87500  0.98096
E51   E   0.23096  0.12500  0.45450
E52   E   0.23096  0.37500  0.95450
E53   E   0.23096  0.62500  0.54550
E54   E   0.23096  0.87500  0.04550
E55   E   0.25000  0.07567  0.50000
E56   E   0.25000  0.17433  0.50000
E57   E   0.25000  0.32567  0.00000
E58   E   0.25000  0.42433  0.00000
E59   E   0.25000  0.57567  0.50000
E60   E   0.25000  0.67433  0.50000
E61   E   0.25000  0.82567  0.00000
E62   E   0.25000  0.92433  0.00000
E63   E   0.26904  0.12500  0.54550
E64   E   0.26904  0.37500  0.04550
E65   E   0.26904  0.62500  0.45450
E66   E   0.26904  0.87500  0.95450
E67   E   0.29550  0.12500  0.48096
E68   E   0.29550  0.37500  0.98096
E69   E   0.29550  0.62500  0.51904
E70   E   0.29550  0.87500  0.01904
E71   E   0.30107  0.05107  0.37500
E72   E   0.30107  0.05107  0.37500
E73   E   0.30107  0.44893  0.87500
E74   E   0.30107  0.55107  0.62500
E75   E   0.30107  0.94893  0.12500
E76   E   0.32567  0.00000  0.25000
E77   E   0.32567  0.50000  0.75000
E78   E   0.37500  0.01904  0.20450
E79   E   0.37500  0.04550  0.26904
E80   E   0.37500  0.19893  0.55107
E81   E   0.37500  0.30107  0.05107
E82   E   0.37500  0.30107  0.05107
E83   E   0.37500  0.45450  0.76904
E84   E   0.37500  0.48096  0.70450
E85   E   0.37500  0.51904  0.79550
E86   E   0.37500  0.54550  0.73096
E87   E   0.37500  0.69893  0.44893
E88   E   0.37500  0.80107  0.94893
E89   E   0.37500  0.95450  0.23096
E90   E   0.37500  0.98096  0.29550
E91   E   0.42433  0.00000  0.25000
E92   E   0.42433  0.50000  0.75000
E93   E   0.44893  0.12500  0.19893
E94   E   0.44893  0.37500  0.69893
E95   E   0.44893  0.62500  0.80107
E96   E   0.44893  0.87500  0.30107
E97   E   0.45450  0.23096  0.12500
E98   E   0.45450  0.26904  0.62500
E99   E   0.45450  0.73096  0.87500
E100  E   0.45450  0.76904  0.37500
E101  E   0.48096  0.20450  0.62500
E102  E   0.48096  0.29550  0.12500
E103  E   0.48096  0.70450  0.37500
E104  E   0.48096  0.79550  0.87500
E105  E   0.50000  0.25000  0.07567
E106  E   0.50000  0.25000  0.17433
E107  E   0.50000  0.25000  0.57567
E108  E   0.50000  0.25000  0.67433
E109  E   0.50000  0.75000  0.32567
E110  E   0.50000  0.75000  0.42433
E111  E   0.50000  0.75000  0.82567
E112  E   0.50000  0.75000  0.92433
E113  E   0.51904  0.20450  0.12500
E114  E   0.51904  0.29550  0.62500
E115  E   0.51904  0.70450  0.87500
E116  E   0.51904  0.79550  0.37500
E117  E   0.54550  0.23096  0.62500
E118  E   0.54550  0.26904  0.12500
E119  E   0.54550  0.73096  0.37500
E120  E   0.54550  0.76904  0.87500
E121  E   0.55107  0.12500  0.69893
E122  E   0.55107  0.37500  0.19893
E123  E   0.55107  0.62500  0.30107
E124  E   0.55107  0.87500  0.80107
E125  E   0.57567  0.00000  0.75000
E126  E   0.57567  0.50000  0.25000
E127  E   0.62500  0.01904  0.70450
E128  E   0.62500  0.04550  0.76904
E129  E   0.62500  0.19893  0.05107
E130  E   0.62500  0.19893  0.05107
E131  E   0.62500  0.30107  0.55107
E132  E   0.62500  0.45450  0.26904
E133  E   0.62500  0.48096  0.20450
E134  E   0.62500  0.51904  0.29550
E135  E   0.62500  0.54550  0.23096
E136  E   0.62500  0.69893  0.94893
E137  E   0.62500  0.80107  0.44893
E138  E   0.62500  0.95450  0.73096
E139  E   0.62500  0.98096  0.79550
E140  E   0.67433  0.00000  0.75000
E141  E   0.67433  0.50000  0.25000
E142  E   0.69893  0.05107  0.87500
E143  E   0.69893  0.05107  0.87500
E144  E   0.69893  0.44893  0.37500
E145  E   0.69893  0.55107  0.12500
E146  E   0.69893  0.94893  0.62500
E147  E   0.70450  0.12500  0.98096
E148  E   0.70450  0.37500  0.48096
E149  E   0.70450  0.62500  0.01904
E150  E   0.70450  0.87500  0.51904
E151  E   0.73096  0.12500  0.04550
E152  E   0.73096  0.37500  0.54550
E153  E   0.73096  0.62500  0.95450
E154  E   0.73096  0.87500  0.45450
E155  E   0.75000  0.07567  0.00000
E156  E   0.75000  0.17433  0.00000
E157  E   0.75000  0.32567  0.50000
E158  E   0.75000  0.42433  0.50000
E159  E   0.75000  0.57567  0.00000
E160  E   0.75000  0.67433  0.00000
E161  E   0.75000  0.82567  0.50000
E162  E   0.75000  0.92433  0.50000
E163  E   0.76904  0.12500  0.95450
E164  E   0.76904  0.37500  0.45450
E165  E   0.76904  0.62500  0.04550
E166  E   0.76904  0.87500  0.54550
E167  E   0.79550  0.12500  0.01904
E168  E   0.79550  0.37500  0.51904
E169  E   0.79550  0.62500  0.98096
E170  E   0.79550  0.87500  0.48096
E171  E   0.80107  0.05107  0.12500
E172  E   0.80107  0.05107  0.12500
E173  E   0.80107  0.44893  0.62500
E174  E   0.80107  0.55107  0.87500
E175  E   0.80107  0.94893  0.37500
E176  E   0.82567  0.00000  0.25000
E177  E   0.82567  0.50000  0.75000
E178  E   0.87500  0.01904  0.29550
E179  E   0.87500  0.04550  0.23096
E180  E   0.87500  0.19893  0.94893
E181  E   0.87500  0.30107  0.44893
E182  E   0.87500  0.45450  0.73096
E183  E   0.87500  0.48096  0.79550
E184  E   0.87500  0.51904  0.70450
E185  E   0.87500  0.54550  0.76904
E186  E   0.87500  0.69893  0.05107
E187  E   0.87500  0.69893  0.05107
E188  E   0.87500  0.80107  0.55107
E189  E   0.87500  0.95450  0.26904
E190  E   0.87500  0.98096  0.20450
E191  E   0.92433  0.00000  0.25000
E192  E   0.92433  0.50000  0.75000
E193  E   0.94893  0.12500  0.30107
E194  E   0.94893  0.37500  0.80107
E195  E   0.94893  0.62500  0.69893
E196  E   0.94893  0.87500  0.19893
E197  E   0.95450  0.23096  0.37500
E198  E   0.95450  0.26904  0.87500
E199  E   0.95450  0.73096  0.62500
E200  E   0.95450  0.76904  0.12500
E201  E   0.98096  0.20450  0.87500
E202  E   0.98096  0.29550  0.37500
E203  E   0.98096  0.70450  0.12500
E204  E   0.98096  0.79550  0.62500
loop_
