data_lcv-a_I4132  hall_number: 510, V_con: 4
_audit_creation_date              2025-03-05
_audit_creation_method            'MOFbuilder_1.0'
_symmetry_space_group_name_H-M    'P1'
_symmetry_Int_Tables_number       1
_symmetry_cell_setting            triclinic
loop_
_symmetry_equiv_pos_as_xyz
  x,y,z
_cell_length_a                    68.284
_cell_length_b                    68.284
_cell_length_c                    68.284
_cell_angle_alpha                 90.0
_cell_angle_beta                  90.0
_cell_angle_gamma                 90.0
loop_
_atom_site_label
_atom_site_type_symbol
_atom_site_fract_x
_atom_site_fract_y
_atom_site_fract_z
V1    V   0.00000  0.17678  0.17678
V2    V   0.00000  0.32322  0.17678
V3    V   0.00000  0.67678  0.32322
V4    V   0.00000  0.82322  0.32322
V5    V   0.07322  0.07322  0.25000
V6    V   0.07322  0.92678  0.25000
V7    V   0.07322  0.25000  0.07322
V8    V   0.07322  0.75000  0.42678
V9    V   0.17678  0.00000  0.17678
V10   V   0.17678  0.00000  0.32322
V11   V   0.17678  0.17678  0.00000
V12   V   0.17678  0.82322  0.50000
V13   V   0.25000  0.07322  0.07322
V14   V   0.25000  0.07322  0.92678
V15   V   0.25000  0.92678  0.42678
V16   V   0.25000  0.92678  0.57322
V17   V   0.32322  0.00000  0.67678
V18   V   0.32322  0.00000  0.82322
V19   V   0.32322  0.17678  0.00000
V20   V   0.32322  0.82322  0.50000
V21   V   0.42678  0.07322  0.75000
V22   V   0.42678  0.25000  0.92678
V23   V   0.42678  0.75000  0.57322
V24   V   0.42678  0.92678  0.75000
V25   V   0.50000  0.17678  0.82322
V26   V   0.50000  0.32322  0.82322
V27   V   0.50000  0.67678  0.67678
V28   V   0.50000  0.82322  0.67678
V29   V   0.57322  0.25000  0.92678
V30   V   0.57322  0.42678  0.75000
V31   V   0.57322  0.57322  0.75000
V32   V   0.57322  0.75000  0.57322
V33   V   0.67678  0.32322  0.00000
V34   V   0.67678  0.50000  0.67678
V35   V   0.67678  0.50000  0.82322
V36   V   0.67678  0.67678  0.50000
V37   V   0.75000  0.42678  0.07322
V38   V   0.75000  0.42678  0.92678
V39   V   0.75000  0.57322  0.42678
V40   V   0.75000  0.57322  0.57322
V41   V   0.82322  0.32322  0.00000
V42   V   0.82322  0.50000  0.17678
V43   V   0.82322  0.50000  0.32322
V44   V   0.82322  0.67678  0.50000
V45   V   0.92678  0.25000  0.07322
V46   V   0.92678  0.42678  0.25000
V47   V   0.92678  0.57322  0.25000
V48   V   0.92678  0.75000  0.42678
E1    E   0.00000  0.25000  0.07322
E2    E   0.00000  0.25000  0.17678
E3    E   0.00000  0.75000  0.32322
E4    E   0.00000  0.75000  0.42678
E5    E   0.03661  0.12500  0.21339
E6    E   0.03661  0.21339  0.12500
E7    E   0.03661  0.28661  0.12500
E8    E   0.03661  0.71339  0.37500
E9    E   0.03661  0.78661  0.37500
E10   E   0.03661  0.87500  0.28661
E11   E   0.03661  0.12500  0.21339
E12   E   0.03661  0.87500  0.28661
E13   E   0.03661  0.21339  0.12500
E14   E   0.03661  0.28661  0.12500
E15   E   0.03661  0.71339  0.37500
E16   E   0.03661  0.78661  0.37500
E17   E   0.07322  0.00000  0.25000
E18   E   0.12500  0.03661  0.21339
E19   E   0.12500  0.03661  0.28661
E20   E   0.12500  0.03661  0.21339
E21   E   0.12500  0.03661  0.28661
E22   E   0.12500  0.21339  0.03661
E23   E   0.12500  0.21339  0.03661
E24   E   0.12500  0.78661  0.46339
E25   E   0.12500  0.78661  0.46339
E26   E   0.12500  0.96339  0.21339
E27   E   0.12500  0.96339  0.21339
E28   E   0.12500  0.96339  0.28661
E29   E   0.17678  0.00000  0.25000
E30   E   0.21339  0.03661  0.12500
E31   E   0.21339  0.03661  0.12500
E32   E   0.21339  0.12500  0.03661
E33   E   0.21339  0.12500  0.96339
E34   E   0.21339  0.87500  0.46339
E35   E   0.21339  0.87500  0.53661
E36   E   0.21339  0.96339  0.37500
E37   E   0.21339  0.12500  0.03661
E38   E   0.21339  0.12500  0.96339
E39   E   0.21339  0.87500  0.46339
E40   E   0.21339  0.87500  0.53661
E41   E   0.25000  0.07322  0.00000
E42   E   0.25000  0.17678  0.00000
E43   E   0.25000  0.82322  0.50000
E44   E   0.25000  0.92678  0.50000
E45   E   0.28661  0.03661  0.87500
E46   E   0.28661  0.12500  0.03661
E47   E   0.28661  0.12500  0.03661
E48   E   0.28661  0.12500  0.96339
E49   E   0.28661  0.87500  0.46339
E50   E   0.28661  0.87500  0.53661
E51   E   0.28661  0.96339  0.62500
E52   E   0.28661  0.03661  0.87500
E53   E   0.28661  0.96339  0.62500
E54   E   0.32322  0.00000  0.75000
E55   E   0.37500  0.03661  0.71339
E56   E   0.37500  0.03661  0.78661
E57   E   0.37500  0.03661  0.71339
E58   E   0.37500  0.03661  0.78661
E59   E   0.37500  0.21339  0.96339
E60   E   0.37500  0.78661  0.53661
E61   E   0.37500  0.96339  0.71339
E62   E   0.37500  0.96339  0.78661
E63   E   0.42678  0.00000  0.75000
E64   E   0.46339  0.12500  0.78661
E65   E   0.46339  0.87500  0.71339
E66   E   0.46339  0.12500  0.78661
E67   E   0.46339  0.21339  0.87500
E68   E   0.46339  0.21339  0.87500
E69   E   0.46339  0.28661  0.87500
E70   E   0.46339  0.71339  0.62500
E71   E   0.46339  0.78661  0.62500
E72   E   0.46339  0.87500  0.71339
E73   E   0.50000  0.25000  0.82322
E74   E   0.50000  0.25000  0.92678
E75   E   0.50000  0.75000  0.57322
E76   E   0.50000  0.75000  0.67678
E77   E   0.53661  0.21339  0.87500
E78   E   0.53661  0.21339  0.87500
E79   E   0.53661  0.28661  0.87500
E80   E   0.53661  0.37500  0.78661
E81   E   0.53661  0.62500  0.71339
E82   E   0.53661  0.71339  0.62500
E83   E   0.53661  0.78661  0.62500
E84   E   0.57322  0.50000  0.75000
E85   E   0.62500  0.28661  0.96339
E86   E   0.62500  0.28661  0.96339
E87   E   0.62500  0.46339  0.71339
E88   E   0.62500  0.46339  0.78661
E89   E   0.62500  0.53661  0.71339
E90   E   0.62500  0.53661  0.78661
E91   E   0.62500  0.71339  0.53661
E92   E   0.67678  0.50000  0.75000
E93   E   0.71339  0.37500  0.03661
E94   E   0.71339  0.37500  0.03661
E95   E   0.71339  0.37500  0.96339
E96   E   0.71339  0.46339  0.87500
E97   E   0.71339  0.46339  0.87500
E98   E   0.71339  0.53661  0.62500
E99   E   0.71339  0.62500  0.46339
E100  E   0.71339  0.62500  0.53661
E101  E   0.75000  0.32322  0.00000
E102  E   0.75000  0.42678  0.00000
E103  E   0.75000  0.57322  0.50000
E104  E   0.75000  0.67678  0.50000
E105  E   0.78661  0.37500  0.03661
E106  E   0.78661  0.37500  0.03661
E107  E   0.78661  0.37500  0.96339
E108  E   0.78661  0.46339  0.12500
E109  E   0.78661  0.46339  0.12500
E110  E   0.78661  0.53661  0.37500
E111  E   0.78661  0.62500  0.46339
E112  E   0.78661  0.62500  0.53661
E113  E   0.82322  0.50000  0.25000
E114  E   0.87500  0.28661  0.03661
E115  E   0.87500  0.28661  0.03661
E116  E   0.87500  0.46339  0.21339
E117  E   0.87500  0.46339  0.21339
E118  E   0.87500  0.46339  0.28661
E119  E   0.87500  0.53661  0.21339
E120  E   0.87500  0.53661  0.21339
E121  E   0.87500  0.53661  0.28661
E122  E   0.87500  0.71339  0.46339
E123  E   0.87500  0.71339  0.46339
E124  E   0.92678  0.50000  0.25000
E125  E   0.96339  0.21339  0.12500
E126  E   0.96339  0.21339  0.12500
E127  E   0.96339  0.28661  0.12500
E128  E   0.96339  0.37500  0.21339
E129  E   0.96339  0.62500  0.28661
E130  E   0.96339  0.62500  0.28661
E131  E   0.96339  0.71339  0.37500
E132  E   0.96339  0.78661  0.37500
loop_
