data_lcy-a_P4132  hall_number: 509, V_con: 4
_audit_creation_date              2025-03-05
_audit_creation_method            'MOFbuilder_1.0'
_symmetry_space_group_name_H-M    'P1'
_symmetry_Int_Tables_number       1
_symmetry_cell_setting            triclinic
loop_
_symmetry_equiv_pos_as_xyz
  x,y,z
_cell_length_a                    40.3559
_cell_length_b                    40.3559
_cell_length_c                    40.3559
_cell_angle_alpha                 90.0
_cell_angle_beta                  90.0
_cell_angle_gamma                 90.0
loop_
_atom_site_label
_atom_site_type_symbol
_atom_site_fract_x
_atom_site_fract_y
_atom_site_fract_z
V1    V   0.03266  0.46734  0.83417
V2    V   0.03266  0.16583  0.53266
V3    V   0.08417  0.78266  0.78266
V4    V   0.16583  0.53266  0.03266
V5    V   0.21734  0.58417  0.71734
V6    V   0.21734  0.28266  0.41583
V7    V   0.28266  0.41583  0.21734
V8    V   0.28266  0.71734  0.91583
V9    V   0.33417  0.46734  0.53266
V10   V   0.41583  0.21734  0.28266
V11   V   0.46734  0.53266  0.33417
V12   V   0.46734  0.83417  0.03266
V13   V   0.53266  0.03266  0.16583
V14   V   0.53266  0.33417  0.46734
V15   V   0.58417  0.71734  0.21734
V16   V   0.66583  0.96734  0.96734
V17   V   0.71734  0.21734  0.58417
V18   V   0.71734  0.91583  0.28266
V19   V   0.78266  0.08417  0.78266
V20   V   0.78266  0.78266  0.08417
V21   V   0.83417  0.03266  0.46734
V22   V   0.91583  0.28266  0.71734
V23   V   0.96734  0.66583  0.96734
V24   V   0.96734  0.96734  0.66583
E1    E   0.00000  0.06659  0.59925
E2    E   0.00000  0.56659  0.90075
E3    E   0.02575  0.72425  0.87500
E4    E   0.02575  0.72425  0.87500
E5    E   0.02575  0.87500  0.72425
E6    E   0.06659  0.59925  0.00000
E7    E   0.09925  0.50000  0.93341
E8    E   0.12500  0.22425  0.47425
E9    E   0.12500  0.22425  0.47425
E10   E   0.12500  0.52575  0.77575
E11   E   0.15075  0.68341  0.75000
E12   E   0.18341  0.75000  0.84925
E13   E   0.22425  0.47425  0.12500
E14   E   0.22425  0.62500  0.97425
E15   E   0.22425  0.47425  0.12500
E16   E   0.22425  0.62500  0.97425
E17   E   0.25000  0.34925  0.31659
E18   E   0.25000  0.65075  0.81659
E19   E   0.27575  0.37500  0.47425
E20   E   0.27575  0.52575  0.62500
E21   E   0.31659  0.25000  0.34925
E22   E   0.34925  0.31659  0.25000
E23   E   0.37500  0.47425  0.27575
E24   E   0.37500  0.77575  0.97425
E25   E   0.40075  0.50000  0.43341
E26   E   0.43341  0.40075  0.50000
E27   E   0.47425  0.12500  0.22425
E28   E   0.47425  0.12500  0.22425
E29   E   0.47425  0.27575  0.37500
E30   E   0.50000  0.43341  0.40075
E31   E   0.50000  0.93341  0.09925
E32   E   0.52575  0.62500  0.27575
E33   E   0.52575  0.77575  0.12500
E34   E   0.56659  0.90075  0.00000
E35   E   0.59925  0.00000  0.06659
E36   E   0.62500  0.27575  0.52575
E37   E   0.62500  0.97425  0.22425
E38   E   0.62500  0.97425  0.22425
E39   E   0.65075  0.81659  0.25000
E40   E   0.68341  0.75000  0.15075
E41   E   0.72425  0.02575  0.87500
E42   E   0.72425  0.87500  0.02575
E43   E   0.72425  0.87500  0.02575
E44   E   0.75000  0.15075  0.68341
E45   E   0.75000  0.84925  0.18341
E46   E   0.77575  0.12500  0.52575
E47   E   0.77575  0.97425  0.37500
E48   E   0.81659  0.25000  0.65075
E49   E   0.84925  0.18341  0.75000
E50   E   0.87500  0.02575  0.72425
E51   E   0.87500  0.02575  0.72425
E52   E   0.87500  0.72425  0.02575
E53   E   0.90075  0.00000  0.56659
E54   E   0.93341  0.09925  0.50000
E55   E   0.97425  0.22425  0.62500
E56   E   0.97425  0.22425  0.62500
E57   E   0.97425  0.37500  0.77575
loop_
