data_lnj_P63/mmc  hall_number: 488, V_con: 6, EC_con: 3
_audit_creation_date              2025-03-05
_audit_creation_method            'MOFbuilder_1.0'
_symmetry_space_group_name_H-M    'P1'
_symmetry_Int_Tables_number       1
_symmetry_cell_setting            triclinic
loop_
_symmetry_equiv_pos_as_xyz
  x,y,z
_cell_length_a                    28.4602
_cell_length_b                    28.4602
_cell_length_c                    35.4954
_cell_angle_alpha                 90.0
_cell_angle_beta                  90.0
_cell_angle_gamma                 120.0
loop_
_atom_site_label
_atom_site_type_symbol
_atom_site_fract_x
_atom_site_fract_y
_atom_site_fract_z
V1    V   0.33333  0.66666  0.75000
V2    V   0.33333  0.66667  0.75000
V3    V   0.33334  0.66667  0.75000
V4    V   0.66666  0.33333  0.25000
V5    V   0.66667  0.33333  0.25000
V6    V   0.66667  0.33334  0.25000
EC1    EC   0.18403  0.36806  0.55927
EC2    EC   0.18403  0.36806  0.94073
EC3    EC   0.18403  0.81597  0.55927
EC4    EC   0.18403  0.81597  0.94073
EC5    EC   0.36806  0.18403  0.05927
EC6    EC   0.36806  0.18403  0.44073
EC7    EC   0.63194  0.81597  0.55927
EC8    EC   0.63194  0.81597  0.94073
EC9    EC   0.81597  0.18403  0.05927
EC10   EC   0.81597  0.18403  0.44073
EC11   EC   0.81597  0.63194  0.05927
EC12   EC   0.81597  0.63194  0.44073
E1    E   0.00000  0.27604  0.00000
E2    E   0.00000  0.27604  0.50000
E3    E   0.00000  0.72396  0.00000
E4    E   0.00000  0.72396  0.50000
E5    E   0.25868  0.51736  0.65464
E6    E   0.25868  0.51736  0.84536
E7    E   0.25868  0.74132  0.65464
E8    E   0.25868  0.74132  0.84536
E9    E   0.27604  0.00000  0.00000
E10   E   0.27604  0.00000  0.50000
E11   E   0.27604  0.27604  0.00000
E12   E   0.27604  0.27604  0.50000
E13   E   0.48264  0.74132  0.65464
E14   E   0.48264  0.74132  0.84536
E15   E   0.51736  0.25868  0.15464
E16   E   0.51736  0.25868  0.34536
E17   E   0.72396  0.00000  0.00000
E18   E   0.72396  0.00000  0.50000
E19   E   0.72396  0.72396  0.00000
E20   E   0.72396  0.72396  0.50000
E21   E   0.74132  0.25868  0.15464
E22   E   0.74132  0.25868  0.34536
E23   E   0.74132  0.48264  0.15464
E24   E   0.74132  0.48264  0.34536
loop_
