data_loh_Cmca  hall_number: 304, V_con: 5
_audit_creation_date              2025-03-05
_audit_creation_method            'MOFbuilder_1.0'
_symmetry_space_group_name_H-M    'P1'
_symmetry_Int_Tables_number       1
_symmetry_cell_setting            triclinic
loop_
_symmetry_equiv_pos_as_xyz
  x,y,z
_cell_length_a                    16.3086
_cell_length_b                    16.2606
_cell_length_c                    23.2212
_cell_angle_alpha                 90.0
_cell_angle_beta                  90.0
_cell_angle_gamma                 90.0
loop_
_atom_site_label
_atom_site_type_symbol
_atom_site_fract_x
_atom_site_fract_y
_atom_site_fract_z
V1    V   0.00000  0.24926  0.12464
V2    V   0.00000  0.25074  0.62464
V3    V   0.00000  0.74926  0.37536
V4    V   0.00000  0.75074  0.87536
V5    V   0.50000  0.24926  0.37536
V6    V   0.50000  0.25074  0.87536
V7    V   0.50000  0.74926  0.12464
V8    V   0.50000  0.75074  0.62464
E1    E   0.00000  0.00000  0.50000
E2    E   0.00000  0.00074  0.75000
E3    E   0.00000  0.49926  0.25000
E4    E   0.00000  0.50000  0.00000
E5    E   0.00000  0.50074  0.75000
E6    E   0.00000  0.99926  0.25000
E7    E   0.25000  0.25000  0.00000
E8    E   0.25000  0.25000  0.50000
E9    E   0.25000  0.75000  0.00000
E10   E   0.25000  0.75000  0.50000
E11   E   0.50000  0.00000  0.00000
E12   E   0.50000  0.00074  0.75000
E13   E   0.50000  0.49926  0.25000
E14   E   0.50000  0.50000  0.50000
E15   E   0.50000  0.50074  0.75000
E16   E   0.50000  0.99926  0.25000
E17   E   0.75000  0.25000  0.00000
E18   E   0.75000  0.25000  0.50000
E19   E   0.75000  0.75000  0.00000
E20   E   0.75000  0.75000  0.50000
loop_
