data_lon-a_P63/mmc  hall_number: 488, V_con: 4, EC_con: 4
_audit_creation_date              2025-03-05
_audit_creation_method            'MOFbuilder_1.0'
_symmetry_space_group_name_H-M    'P1'
_symmetry_Int_Tables_number       1
_symmetry_cell_setting            triclinic
loop_
_symmetry_equiv_pos_as_xyz
  x,y,z
_cell_length_a                    36.3535
_cell_length_b                    36.3535
_cell_length_c                    59.2491
_cell_angle_alpha                 90.0
_cell_angle_beta                  90.0
_cell_angle_gamma                 120.0
loop_
_atom_site_label
_atom_site_type_symbol
_atom_site_fract_x
_atom_site_fract_y
_atom_site_fract_z
V1    V   0.33333  0.66666  0.16561
V2    V   0.33333  0.66666  0.33439
V3    V   0.33333  0.66667  0.16561
V4    V   0.33333  0.66667  0.33439
V5    V   0.33334  0.66667  0.16561
V6    V   0.33334  0.66667  0.33439
V7    V   0.66666  0.33333  0.66561
V8    V   0.66666  0.33333  0.83439
V9    V   0.66667  0.33333  0.66561
V10   V   0.66667  0.33333  0.83439
V11   V   0.66667  0.33334  0.66561
V12   V   0.66667  0.33334  0.83439
EC1    EC   0.14995  0.57497  0.02780
EC2    EC   0.14995  0.57497  0.47220
EC3    EC   0.14995  0.57498  0.02780
EC4    EC   0.14995  0.57498  0.47220
EC5    EC   0.42502  0.57497  0.02780
EC6    EC   0.42502  0.57497  0.47220
EC7    EC   0.42502  0.85005  0.02780
EC8    EC   0.42502  0.85005  0.47220
EC9    EC   0.42503  0.57498  0.02780
EC10   EC   0.42503  0.57498  0.47220
EC11   EC   0.42503  0.85005  0.02780
EC12   EC   0.42503  0.85005  0.47220
EC13   EC   0.57497  0.14995  0.52780
EC14   EC   0.57497  0.14995  0.97220
EC15   EC   0.57497  0.42502  0.52780
EC16   EC   0.57497  0.42502  0.97220
EC17   EC   0.57498  0.14995  0.52780
EC18   EC   0.57498  0.14995  0.97220
EC19   EC   0.57498  0.42503  0.52780
EC20   EC   0.57498  0.42503  0.97220
EC21   EC   0.85005  0.42502  0.52780
EC22   EC   0.85005  0.42502  0.97220
EC23   EC   0.85005  0.42503  0.52780
EC24   EC   0.85005  0.42503  0.97220
E1    E   0.00000  0.50000  0.00000
E2    E   0.00000  0.50000  0.50000
E3    E   0.24164  0.62082  0.09671
E4    E   0.24164  0.62082  0.40329
E5    E   0.24164  0.62082  0.09671
E6    E   0.24164  0.62082  0.40329
E7    E   0.28748  0.57497  0.02780
E8    E   0.28748  0.57497  0.47220
E9    E   0.28748  0.71251  0.02780
E10   E   0.28748  0.71251  0.47220
E11   E   0.28749  0.57497  0.02780
E12   E   0.28749  0.57497  0.47220
E13   E   0.28749  0.71252  0.02780
E14   E   0.28749  0.71252  0.47220
E15   E   0.33333  0.66666  0.25000
E16   E   0.33333  0.66667  0.25000
E17   E   0.33334  0.66667  0.25000
E18   E   0.37918  0.62082  0.09671
E19   E   0.37918  0.62082  0.40329
E20   E   0.37918  0.75836  0.09671
E21   E   0.37918  0.75836  0.40329
E22   E   0.37918  0.62082  0.09671
E23   E   0.37918  0.62082  0.40329
E24   E   0.37918  0.75836  0.09671
E25   E   0.37918  0.75836  0.40329
E26   E   0.42503  0.71251  0.02780
E27   E   0.42503  0.71251  0.47220
E28   E   0.42503  0.71252  0.02780
E29   E   0.42503  0.71252  0.47220
E30   E   0.50000  0.00000  0.00000
E31   E   0.50000  0.00000  0.50000
E32   E   0.50000  0.50000  0.00000
E33   E   0.50000  0.50000  0.50000
E34   E   0.57497  0.28748  0.52780
E35   E   0.57497  0.28748  0.97220
E36   E   0.57497  0.28749  0.52780
E37   E   0.57497  0.28749  0.97220
E38   E   0.62082  0.24164  0.59671
E39   E   0.62082  0.24164  0.90329
E40   E   0.62082  0.37918  0.59671
E41   E   0.62082  0.37918  0.90329
E42   E   0.62082  0.24164  0.59671
E43   E   0.62082  0.24164  0.90329
E44   E   0.62082  0.37918  0.59671
E45   E   0.62082  0.37918  0.90329
E46   E   0.66666  0.33333  0.75000
E47   E   0.66667  0.33333  0.75000
E48   E   0.66667  0.33334  0.75000
E49   E   0.71251  0.28748  0.52780
E50   E   0.71251  0.28748  0.97220
E51   E   0.71251  0.42503  0.52780
E52   E   0.71251  0.42503  0.97220
E53   E   0.71252  0.28749  0.52780
E54   E   0.71252  0.28749  0.97220
E55   E   0.71252  0.42503  0.52780
E56   E   0.71252  0.42503  0.97220
E57   E   0.75836  0.37918  0.59671
E58   E   0.75836  0.37918  0.90329
E59   E   0.75836  0.37918  0.59671
E60   E   0.75836  0.37918  0.90329
loop_
