data_lon_P63/mmc  hall_number: 488, V_con: 4
_audit_creation_date              2025-03-05
_audit_creation_method            'MOFbuilder_1.0'
_symmetry_space_group_name_H-M    'P1'
_symmetry_Int_Tables_number       1
_symmetry_cell_setting            triclinic
loop_
_symmetry_equiv_pos_as_xyz
  x,y,z
_cell_length_a                    16.3299
_cell_length_b                    16.3299
_cell_length_c                    26.6668
_cell_angle_alpha                 90.0
_cell_angle_beta                  90.0
_cell_angle_gamma                 120.0
loop_
_atom_site_label
_atom_site_type_symbol
_atom_site_fract_x
_atom_site_fract_y
_atom_site_fract_z
V1    V   0.33333  0.66666  0.06250
V2    V   0.33333  0.66666  0.43750
V3    V   0.33333  0.66667  0.06250
V4    V   0.33333  0.66667  0.43750
V5    V   0.33334  0.66667  0.06250
V6    V   0.33334  0.66667  0.43750
V7    V   0.66666  0.33333  0.56250
V8    V   0.66666  0.33333  0.93750
V9    V   0.66667  0.33333  0.56250
V10   V   0.66667  0.33333  0.93750
V11   V   0.66667  0.33334  0.56250
V12   V   0.66667  0.33334  0.93750
E1    E   0.00000  0.50000  0.00000
E2    E   0.00000  0.50000  0.50000
E3    E   0.33333  0.66666  0.25000
E4    E   0.33333  0.66667  0.25000
E5    E   0.33334  0.66667  0.25000
E6    E   0.50000  0.00000  0.00000
E7    E   0.50000  0.00000  0.50000
E8    E   0.50000  0.50000  0.00000
E9    E   0.50000  0.50000  0.50000
E10   E   0.66666  0.33333  0.75000
E11   E   0.66667  0.33333  0.75000
E12   E   0.66667  0.33334  0.75000
loop_
