data_lrj_Cccm  hall_number: 313, V_con: 4, EC_con: 3
_audit_creation_date              2025-03-05
_audit_creation_method            'MOFbuilder_1.0'
_symmetry_space_group_name_H-M    'P1'
_symmetry_Int_Tables_number       1
_symmetry_cell_setting            triclinic
loop_
_symmetry_equiv_pos_as_xyz
  x,y,z
_cell_length_a                    16.7695
_cell_length_b                    52.699299999999994
_cell_length_c                    61.7107
_cell_angle_alpha                 90.0
_cell_angle_beta                  90.0
_cell_angle_gamma                 90.0
loop_
_atom_site_label
_atom_site_type_symbol
_atom_site_fract_x
_atom_site_fract_y
_atom_site_fract_z
V1    V   0.00000  0.30170  0.16898
V2    V   0.00000  0.30170  0.33102
V3    V   0.00000  0.30170  0.66898
V4    V   0.00000  0.30170  0.83102
V5    V   0.00000  0.69830  0.16898
V6    V   0.00000  0.69830  0.33102
V7    V   0.00000  0.69830  0.66898
V8    V   0.00000  0.69830  0.83102
V9    V   0.50000  0.19830  0.16898
V10   V   0.50000  0.19830  0.33102
V11   V   0.50000  0.19830  0.66898
V12   V   0.50000  0.19830  0.83102
V13   V   0.50000  0.80170  0.16898
V14   V   0.50000  0.80170  0.33102
V15   V   0.50000  0.80170  0.66898
V16   V   0.50000  0.80170  0.83102
EC1    EC   0.18346  0.07479  0.08102
EC2    EC   0.18346  0.07479  0.91898
EC3    EC   0.18346  0.92521  0.41898
EC4    EC   0.18346  0.92521  0.58102
EC5    EC   0.31654  0.42521  0.08102
EC6    EC   0.31654  0.42521  0.91898
EC7    EC   0.31654  0.57479  0.41898
EC8    EC   0.31654  0.57479  0.58102
EC9    EC   0.68346  0.42521  0.41898
EC10   EC   0.68346  0.42521  0.58102
EC11   EC   0.68346  0.57479  0.08102
EC12   EC   0.68346  0.57479  0.91898
EC13   EC   0.81654  0.07479  0.41898
EC14   EC   0.81654  0.07479  0.58102
EC15   EC   0.81654  0.92521  0.08102
EC16   EC   0.81654  0.92521  0.91898
E1    E   0.00000  0.00000  0.08102
E2    E   0.00000  0.00000  0.41898
E3    E   0.00000  0.00000  0.58102
E4    E   0.00000  0.00000  0.91898
E5    E   0.00000  0.30170  0.25000
E6    E   0.00000  0.30170  0.75000
E7    E   0.00000  0.69830  0.25000
E8    E   0.00000  0.69830  0.75000
E9    E   0.15827  0.36346  0.12500
E10   E   0.15827  0.36346  0.87500
E11   E   0.15827  0.63654  0.37500
E12   E   0.15827  0.63654  0.62500
E13   E   0.18346  0.07479  0.00000
E14   E   0.18346  0.92521  0.50000
E15   E   0.25000  0.25000  0.16898
E16   E   0.25000  0.25000  0.33102
E17   E   0.25000  0.25000  0.66898
E18   E   0.25000  0.25000  0.83102
E19   E   0.25000  0.75000  0.16898
E20   E   0.25000  0.75000  0.33102
E21   E   0.25000  0.75000  0.66898
E22   E   0.25000  0.75000  0.83102
E23   E   0.31654  0.42521  0.00000
E24   E   0.31654  0.57479  0.50000
E25   E   0.34173  0.13654  0.12500
E26   E   0.34173  0.13654  0.87500
E27   E   0.34173  0.86346  0.37500
E28   E   0.34173  0.86346  0.62500
E29   E   0.50000  0.19830  0.25000
E30   E   0.50000  0.19830  0.75000
E31   E   0.50000  0.50000  0.08102
E32   E   0.50000  0.50000  0.41898
E33   E   0.50000  0.50000  0.58102
E34   E   0.50000  0.50000  0.91898
E35   E   0.50000  0.80170  0.25000
E36   E   0.50000  0.80170  0.75000
E37   E   0.65827  0.13654  0.37500
E38   E   0.65827  0.13654  0.62500
E39   E   0.65827  0.86346  0.12500
E40   E   0.65827  0.86346  0.87500
E41   E   0.68346  0.42521  0.50000
E42   E   0.68346  0.57479  0.00000
E43   E   0.75000  0.25000  0.16898
E44   E   0.75000  0.25000  0.33102
E45   E   0.75000  0.25000  0.66898
E46   E   0.75000  0.25000  0.83102
E47   E   0.75000  0.75000  0.16898
E48   E   0.75000  0.75000  0.33102
E49   E   0.75000  0.75000  0.66898
E50   E   0.75000  0.75000  0.83102
E51   E   0.81654  0.07479  0.50000
E52   E   0.81654  0.92521  0.00000
E53   E   0.84173  0.36346  0.37500
E54   E   0.84173  0.36346  0.62500
E55   E   0.84173  0.63654  0.12500
E56   E   0.84173  0.63654  0.87500
loop_
