data_ltl_P6/mmm  hall_number: 485, V_con: 4, EC_con: 4
_audit_creation_date              2025-03-05
_audit_creation_method            'MOFbuilder_1.0'
_symmetry_space_group_name_H-M    'P1'
_symmetry_Int_Tables_number       1
_symmetry_cell_setting            triclinic
loop_
_symmetry_equiv_pos_as_xyz
  x,y,z
_cell_length_a                    57.8972
_cell_length_b                    57.8972
_cell_length_c                    25.838
_cell_angle_alpha                 90.0
_cell_angle_beta                  90.0
_cell_angle_gamma                 120.0
loop_
_atom_site_label
_atom_site_type_symbol
_atom_site_fract_x
_atom_site_fract_y
_atom_site_fract_z
V1    V   0.16061  0.49395  0.30649
V2    V   0.16061  0.49395  0.69351
V3    V   0.16061  0.66666  0.30649
V4    V   0.16061  0.66666  0.69351
V5    V   0.33334  0.49395  0.30649
V6    V   0.33334  0.49395  0.69351
V7    V   0.33334  0.83939  0.30649
V8    V   0.33334  0.83939  0.69351
V9    V   0.49395  0.16061  0.30649
V10   V   0.49395  0.16061  0.69351
V11   V   0.49395  0.33334  0.30649
V12   V   0.49395  0.33334  0.69351
V13   V   0.50605  0.66666  0.30649
V14   V   0.50605  0.66666  0.69351
V15   V   0.50605  0.83939  0.30649
V16   V   0.50605  0.83939  0.69351
V17   V   0.66666  0.16061  0.30649
V18   V   0.66666  0.16061  0.69351
V19   V   0.66666  0.50605  0.30649
V20   V   0.66666  0.50605  0.69351
V21   V   0.83939  0.33334  0.30649
V22   V   0.83939  0.33334  0.69351
V23   V   0.83939  0.50605  0.30649
V24   V   0.83939  0.50605  0.69351
EC1    EC   0.09972  0.37216  0.00000
EC2    EC   0.09972  0.72756  0.00000
EC3    EC   0.27244  0.37216  0.00000
EC4    EC   0.27244  0.90028  0.00000
EC5    EC   0.37216  0.09972  0.00000
EC6    EC   0.37216  0.27244  0.00000
EC7    EC   0.62784  0.72756  0.00000
EC8    EC   0.62784  0.90028  0.00000
EC9    EC   0.72756  0.09972  0.00000
EC10   EC   0.72756  0.62784  0.00000
EC11   EC   0.90028  0.27244  0.00000
EC12   EC   0.90028  0.62784  0.00000
E1    E   0.00000  0.32230  0.00000
E2    E   0.00000  0.67770  0.00000
E3    E   0.13017  0.43305  0.15324
E4    E   0.13017  0.43305  0.84676
E5    E   0.13017  0.69712  0.15324
E6    E   0.13017  0.69712  0.84676
E7    E   0.16061  0.49395  0.50000
E8    E   0.16061  0.58030  0.30649
E9    E   0.16061  0.58030  0.69351
E10   E   0.16061  0.58031  0.30649
E11   E   0.16061  0.58031  0.69351
E12   E   0.16061  0.66666  0.50000
E13   E   0.18608  0.37216  0.00000
E14   E   0.18608  0.81392  0.00000
E15   E   0.24697  0.49395  0.30649
E16   E   0.24697  0.49395  0.69351
E17   E   0.24697  0.75302  0.30649
E18   E   0.24697  0.75302  0.69351
E19   E   0.24698  0.49395  0.30649
E20   E   0.24698  0.49395  0.69351
E21   E   0.24698  0.75303  0.30649
E22   E   0.24698  0.75303  0.69351
E23   E   0.30288  0.43305  0.15324
E24   E   0.30288  0.43305  0.84676
E25   E   0.30288  0.86983  0.15324
E26   E   0.30288  0.86983  0.84676
E27   E   0.32230  0.00000  0.00000
E28   E   0.32230  0.32230  0.00000
E29   E   0.33334  0.49395  0.50000
E30   E   0.33334  0.83939  0.50000
E31   E   0.37216  0.18608  0.00000
E32   E   0.41969  0.58030  0.30649
E33   E   0.41969  0.58030  0.69351
E34   E   0.41969  0.83939  0.30649
E35   E   0.41969  0.83939  0.69351
E36   E   0.41970  0.58031  0.30649
E37   E   0.41970  0.58031  0.69351
E38   E   0.41970  0.83939  0.30649
E39   E   0.41970  0.83939  0.69351
E40   E   0.43305  0.13017  0.15324
E41   E   0.43305  0.13017  0.84676
E42   E   0.43305  0.30288  0.15324
E43   E   0.43305  0.30288  0.84676
E44   E   0.49395  0.16061  0.50000
E45   E   0.49395  0.24697  0.30649
E46   E   0.49395  0.24697  0.69351
E47   E   0.49395  0.24698  0.30649
E48   E   0.49395  0.24698  0.69351
E49   E   0.49395  0.33334  0.50000
E50   E   0.50605  0.66666  0.50000
E51   E   0.50605  0.75302  0.30649
E52   E   0.50605  0.75302  0.69351
E53   E   0.50605  0.75303  0.30649
E54   E   0.50605  0.75303  0.69351
E55   E   0.50605  0.83939  0.50000
E56   E   0.56695  0.69712  0.15324
E57   E   0.56695  0.69712  0.84676
E58   E   0.56695  0.86983  0.15324
E59   E   0.56695  0.86983  0.84676
E60   E   0.58030  0.16061  0.30649
E61   E   0.58030  0.16061  0.69351
E62   E   0.58030  0.41969  0.30649
E63   E   0.58030  0.41969  0.69351
E64   E   0.58031  0.16061  0.30649
E65   E   0.58031  0.16061  0.69351
E66   E   0.58031  0.41970  0.30649
E67   E   0.58031  0.41970  0.69351
E68   E   0.62784  0.81392  0.00000
E69   E   0.66666  0.16061  0.50000
E70   E   0.66666  0.50605  0.50000
E71   E   0.67770  0.00000  0.00000
E72   E   0.67770  0.67770  0.00000
E73   E   0.69712  0.13017  0.15324
E74   E   0.69712  0.13017  0.84676
E75   E   0.69712  0.56695  0.15324
E76   E   0.69712  0.56695  0.84676
E77   E   0.75302  0.24697  0.30649
E78   E   0.75302  0.24697  0.69351
E79   E   0.75302  0.50605  0.30649
E80   E   0.75302  0.50605  0.69351
E81   E   0.75303  0.24698  0.30649
E82   E   0.75303  0.24698  0.69351
E83   E   0.75303  0.50605  0.30649
E84   E   0.75303  0.50605  0.69351
E85   E   0.81392  0.18608  0.00000
E86   E   0.81392  0.62784  0.00000
E87   E   0.83939  0.33334  0.50000
E88   E   0.83939  0.41969  0.30649
E89   E   0.83939  0.41969  0.69351
E90   E   0.83939  0.41970  0.30649
E91   E   0.83939  0.41970  0.69351
E92   E   0.83939  0.50605  0.50000
E93   E   0.86983  0.30288  0.15324
E94   E   0.86983  0.30288  0.84676
E95   E   0.86983  0.56695  0.15324
E96   E   0.86983  0.56695  0.84676
loop_
