data_lum_I41/amd:2  hall_number: 427, V_con: 4, EC_con: 3
_audit_creation_date              2025-03-05
_audit_creation_method            'MOFbuilder_1.0'
_symmetry_space_group_name_H-M    'P1'
_symmetry_Int_Tables_number       1
_symmetry_cell_setting            triclinic
loop_
_symmetry_equiv_pos_as_xyz
  x,y,z
_cell_length_a                    45.351600000000005
_cell_length_b                    45.351600000000005
_cell_length_c                    34.4516
_cell_angle_alpha                 90.0
_cell_angle_beta                  90.0
_cell_angle_gamma                 90.0
loop_
_atom_site_label
_atom_site_type_symbol
_atom_site_fract_x
_atom_site_fract_y
_atom_site_fract_z
V1    V   0.17036  0.00000  0.50000
V2    V   0.17036  0.50000  0.50000
V3    V   0.25000  0.07964  0.25000
V4    V   0.25000  0.42036  0.25000
V5    V   0.25000  0.57964  0.75000
V6    V   0.25000  0.92036  0.75000
V7    V   0.32964  0.00000  0.00000
V8    V   0.32964  0.50000  0.00000
V9    V   0.67036  0.00000  0.00000
V10   V   0.67036  0.50000  0.00000
V11   V   0.75000  0.07964  0.25000
V12   V   0.75000  0.42036  0.25000
V13   V   0.75000  0.57964  0.75000
V14   V   0.75000  0.92036  0.75000
V15   V   0.82964  0.00000  0.50000
V16   V   0.82964  0.50000  0.50000
EC1    EC   0.00000  0.13978  0.50016
EC2    EC   0.00000  0.36022  0.50016
EC3    EC   0.00000  0.63978  0.49984
EC4    EC   0.00000  0.86022  0.49984
EC5    EC   0.11022  0.25000  0.24984
EC6    EC   0.11022  0.75000  0.75016
EC7    EC   0.38978  0.25000  0.25016
EC8    EC   0.38978  0.75000  0.74984
EC9    EC   0.50000  0.13978  0.99984
EC10   EC   0.50000  0.36022  0.99984
EC11   EC   0.50000  0.63978  0.00016
EC12   EC   0.50000  0.86022  0.00016
EC13   EC   0.61022  0.25000  0.25016
EC14   EC   0.61022  0.75000  0.74984
EC15   EC   0.88978  0.25000  0.24984
EC16   EC   0.88978  0.75000  0.75016
E1    E   0.00000  0.25000  0.24984
E2    E   0.00000  0.25000  0.50016
E3    E   0.00000  0.75000  0.49984
E4    E   0.00000  0.75000  0.75016
E5    E   0.08518  0.06989  0.50008
E6    E   0.08518  0.43011  0.50008
E7    E   0.08518  0.56989  0.49992
E8    E   0.08518  0.93011  0.49992
E9    E   0.18011  0.16482  0.24992
E10   E   0.18011  0.33518  0.24992
E11   E   0.18011  0.66482  0.75008
E12   E   0.18011  0.83518  0.75008
E13   E   0.21018  0.03982  0.37500
E14   E   0.21018  0.46018  0.37500
E15   E   0.21018  0.53982  0.62500
E16   E   0.21018  0.96018  0.62500
E17   E   0.21018  0.03982  0.37500
E18   E   0.21018  0.46018  0.37500
E19   E   0.21018  0.53982  0.62500
E20   E   0.21018  0.96018  0.62500
E21   E   0.28982  0.03982  0.12500
E22   E   0.28982  0.03982  0.12500
E23   E   0.28982  0.46018  0.12500
E24   E   0.28982  0.53982  0.87500
E25   E   0.28982  0.96018  0.87500
E26   E   0.31989  0.16482  0.25008
E27   E   0.31989  0.33518  0.25008
E28   E   0.31989  0.66482  0.74992
E29   E   0.31989  0.83518  0.74992
E30   E   0.41482  0.06989  0.99992
E31   E   0.41482  0.43011  0.99992
E32   E   0.41482  0.56989  0.00008
E33   E   0.41482  0.93011  0.00008
E34   E   0.50000  0.25000  0.25016
E35   E   0.50000  0.25000  0.99984
E36   E   0.50000  0.75000  0.00016
E37   E   0.50000  0.75000  0.74984
E38   E   0.58518  0.06989  0.99992
E39   E   0.58518  0.43011  0.99992
E40   E   0.58518  0.56989  0.00008
E41   E   0.58518  0.93011  0.00008
E42   E   0.68011  0.16482  0.25008
E43   E   0.68011  0.33518  0.25008
E44   E   0.68011  0.66482  0.74992
E45   E   0.68011  0.83518  0.74992
E46   E   0.71018  0.03982  0.12500
E47   E   0.71018  0.03982  0.12500
E48   E   0.71018  0.46018  0.12500
E49   E   0.71018  0.53982  0.87500
E50   E   0.71018  0.96018  0.87500
E51   E   0.78982  0.03982  0.37500
E52   E   0.78982  0.03982  0.37500
E53   E   0.78982  0.46018  0.37500
E54   E   0.78982  0.53982  0.62500
E55   E   0.78982  0.96018  0.62500
E56   E   0.81989  0.16482  0.24992
E57   E   0.81989  0.33518  0.24992
E58   E   0.81989  0.66482  0.75008
E59   E   0.81989  0.83518  0.75008
E60   E   0.91482  0.06989  0.50008
E61   E   0.91482  0.43011  0.50008
E62   E   0.91482  0.56989  0.49992
E63   E   0.91482  0.93011  0.49992
loop_
