data_lwa_Im-3  hall_number: 500, V_con: 12, EC_con: 11
_audit_creation_date              2025-03-05
_audit_creation_method            'MOFbuilder_1.0'
_symmetry_space_group_name_H-M    'P1'
_symmetry_Int_Tables_number       1
_symmetry_cell_setting            triclinic
loop_
_symmetry_equiv_pos_as_xyz
  x,y,z
_cell_length_a                    26.870599999999996
_cell_length_b                    26.870599999999996
_cell_length_c                    26.870599999999996
_cell_angle_alpha                 90.0
_cell_angle_beta                  90.0
_cell_angle_gamma                 90.0
loop_
_atom_site_label
_atom_site_type_symbol
_atom_site_fract_x
_atom_site_fract_y
_atom_site_fract_z
V1    V   0.00000  0.00000  0.00000
V2    V   0.50000  0.50000  0.50000
EC1    EC   0.00000  0.30718  0.18531
EC2    EC   0.00000  0.30718  0.81469
EC3    EC   0.00000  0.69282  0.18531
EC4    EC   0.00000  0.69282  0.81469
EC5    EC   0.18531  0.00000  0.30718
EC6    EC   0.18531  0.00000  0.69282
EC7    EC   0.19282  0.31469  0.50000
EC8    EC   0.19282  0.68531  0.50000
EC9    EC   0.30718  0.18531  0.00000
EC10   EC   0.30718  0.81469  0.00000
EC11   EC   0.31469  0.50000  0.19282
EC12   EC   0.31469  0.50000  0.80718
EC13   EC   0.50000  0.19282  0.31469
EC14   EC   0.50000  0.19282  0.68531
EC15   EC   0.50000  0.80718  0.31469
EC16   EC   0.50000  0.80718  0.68531
EC17   EC   0.68531  0.50000  0.19282
EC18   EC   0.68531  0.50000  0.80718
EC19   EC   0.69282  0.18531  0.00000
EC20   EC   0.69282  0.81469  0.00000
EC21   EC   0.80718  0.31469  0.50000
EC22   EC   0.80718  0.68531  0.50000
EC23   EC   0.81469  0.00000  0.30718
EC24   EC   0.81469  0.00000  0.69282
E1    E   0.00000  0.00000  0.30718
E2    E   0.00000  0.00000  0.69282
E3    E   0.00000  0.15359  0.09265
E4    E   0.00000  0.15359  0.90735
E5    E   0.00000  0.30718  0.00000
E6    E   0.00000  0.31469  0.50000
E7    E   0.00000  0.50000  0.18531
E8    E   0.00000  0.50000  0.81469
E9    E   0.00000  0.68531  0.50000
E10   E   0.00000  0.69282  0.00000
E11   E   0.00000  0.84641  0.09265
E12   E   0.00000  0.84641  0.90735
E13   E   0.09265  0.00000  0.15359
E14   E   0.09265  0.00000  0.84641
E15   E   0.09265  0.15359  0.24624
E16   E   0.09265  0.15359  0.75376
E17   E   0.09265  0.84641  0.24624
E18   E   0.09265  0.84641  0.75376
E19   E   0.09641  0.31094  0.34265
E20   E   0.09641  0.31094  0.65735
E21   E   0.09641  0.68906  0.34265
E22   E   0.09641  0.68906  0.65735
E23   E   0.15359  0.09265  0.00000
E24   E   0.15359  0.24624  0.09265
E25   E   0.15359  0.24624  0.90735
E26   E   0.15359  0.75376  0.09265
E27   E   0.15359  0.75376  0.90735
E28   E   0.15359  0.90735  0.00000
E29   E   0.15735  0.40359  0.18906
E30   E   0.15735  0.40359  0.81094
E31   E   0.15735  0.59641  0.18906
E32   E   0.15735  0.59641  0.81094
E33   E   0.18531  0.00000  0.50000
E34   E   0.18906  0.15735  0.40359
E35   E   0.18906  0.15735  0.59641
E36   E   0.18906  0.84265  0.40359
E37   E   0.18906  0.84265  0.59641
E38   E   0.19282  0.50000  0.50000
E39   E   0.24624  0.09265  0.15359
E40   E   0.24624  0.09265  0.84641
E41   E   0.24624  0.90735  0.15359
E42   E   0.24624  0.90735  0.84641
E43   E   0.25376  0.40735  0.34641
E44   E   0.25376  0.40735  0.65359
E45   E   0.25376  0.59265  0.34641
E46   E   0.25376  0.59265  0.65359
E47   E   0.30718  0.00000  0.00000
E48   E   0.31094  0.34265  0.09641
E49   E   0.31094  0.34265  0.90359
E50   E   0.31094  0.65735  0.09641
E51   E   0.31094  0.65735  0.90359
E52   E   0.31469  0.50000  0.00000
E53   E   0.34265  0.09641  0.31094
E54   E   0.34265  0.09641  0.68906
E55   E   0.34265  0.90359  0.31094
E56   E   0.34265  0.90359  0.68906
E57   E   0.34641  0.25376  0.40735
E58   E   0.34641  0.25376  0.59265
E59   E   0.34641  0.40735  0.50000
E60   E   0.34641  0.59265  0.50000
E61   E   0.34641  0.74624  0.40735
E62   E   0.34641  0.74624  0.59265
E63   E   0.40359  0.18906  0.15735
E64   E   0.40359  0.18906  0.84265
E65   E   0.40359  0.81094  0.15735
E66   E   0.40359  0.81094  0.84265
E67   E   0.40735  0.34641  0.25376
E68   E   0.40735  0.34641  0.74624
E69   E   0.40735  0.50000  0.34641
E70   E   0.40735  0.50000  0.65359
E71   E   0.40735  0.65359  0.25376
E72   E   0.40735  0.65359  0.74624
E73   E   0.50000  0.00000  0.31469
E74   E   0.50000  0.00000  0.68531
E75   E   0.50000  0.18531  0.00000
E76   E   0.50000  0.19282  0.50000
E77   E   0.50000  0.34641  0.40735
E78   E   0.50000  0.34641  0.59265
E79   E   0.50000  0.50000  0.19282
E80   E   0.50000  0.50000  0.80718
E81   E   0.50000  0.65359  0.40735
E82   E   0.50000  0.65359  0.59265
E83   E   0.50000  0.80718  0.50000
E84   E   0.50000  0.81469  0.00000
E85   E   0.59265  0.34641  0.25376
E86   E   0.59265  0.34641  0.74624
E87   E   0.59265  0.50000  0.34641
E88   E   0.59265  0.50000  0.65359
E89   E   0.59265  0.65359  0.25376
E90   E   0.59265  0.65359  0.74624
E91   E   0.59641  0.18906  0.15735
E92   E   0.59641  0.18906  0.84265
E93   E   0.59641  0.81094  0.15735
E94   E   0.59641  0.81094  0.84265
E95   E   0.65359  0.25376  0.40735
E96   E   0.65359  0.25376  0.59265
E97   E   0.65359  0.40735  0.50000
E98   E   0.65359  0.59265  0.50000
E99   E   0.65359  0.74624  0.40735
E100  E   0.65359  0.74624  0.59265
E101  E   0.65735  0.09641  0.31094
E102  E   0.65735  0.09641  0.68906
E103  E   0.65735  0.90359  0.31094
E104  E   0.65735  0.90359  0.68906
E105  E   0.68531  0.50000  0.00000
E106  E   0.68906  0.34265  0.09641
E107  E   0.68906  0.34265  0.90359
E108  E   0.68906  0.65735  0.09641
E109  E   0.68906  0.65735  0.90359
E110  E   0.69282  0.00000  0.00000
E111  E   0.74624  0.40735  0.34641
E112  E   0.74624  0.40735  0.65359
E113  E   0.74624  0.59265  0.34641
E114  E   0.74624  0.59265  0.65359
E115  E   0.75376  0.09265  0.15359
E116  E   0.75376  0.09265  0.84641
E117  E   0.75376  0.90735  0.15359
E118  E   0.75376  0.90735  0.84641
E119  E   0.80718  0.50000  0.50000
E120  E   0.81094  0.15735  0.40359
E121  E   0.81094  0.15735  0.59641
E122  E   0.81094  0.84265  0.40359
E123  E   0.81094  0.84265  0.59641
E124  E   0.81469  0.00000  0.50000
E125  E   0.84265  0.40359  0.18906
E126  E   0.84265  0.40359  0.81094
E127  E   0.84265  0.59641  0.18906
E128  E   0.84265  0.59641  0.81094
E129  E   0.84641  0.09265  0.00000
E130  E   0.84641  0.24624  0.09265
E131  E   0.84641  0.24624  0.90735
E132  E   0.84641  0.75376  0.09265
E133  E   0.84641  0.75376  0.90735
E134  E   0.84641  0.90735  0.00000
E135  E   0.90359  0.31094  0.34265
E136  E   0.90359  0.31094  0.65735
E137  E   0.90359  0.68906  0.34265
E138  E   0.90359  0.68906  0.65735
E139  E   0.90735  0.00000  0.15359
E140  E   0.90735  0.00000  0.84641
E141  E   0.90735  0.15359  0.24624
E142  E   0.90735  0.15359  0.75376
E143  E   0.90735  0.84641  0.24624
E144  E   0.90735  0.84641  0.75376
loop_
