data_maw_Im-3m  hall_number: 529, V_con: 4, EC_con: 3
_audit_creation_date              2025-03-05
_audit_creation_method            'MOFbuilder_1.0'
_symmetry_space_group_name_H-M    'P1'
_symmetry_Int_Tables_number       1
_symmetry_cell_setting            triclinic
loop_
_symmetry_equiv_pos_as_xyz
  x,y,z
_cell_length_a                    48.288799999999995
_cell_length_b                    48.288799999999995
_cell_length_c                    48.288799999999995
_cell_angle_alpha                 90.0
_cell_angle_beta                  90.0
_cell_angle_gamma                 90.0
loop_
_atom_site_label
_atom_site_type_symbol
_atom_site_fract_x
_atom_site_fract_y
_atom_site_fract_z
V1    V   0.00000  0.00000  0.35322
V2    V   0.00000  0.00000  0.64678
V3    V   0.00000  0.35322  0.00000
V4    V   0.00000  0.64678  0.00000
V5    V   0.14678  0.50000  0.50000
V6    V   0.35322  0.00000  0.00000
V7    V   0.50000  0.14678  0.50000
V8    V   0.50000  0.50000  0.14678
V9    V   0.50000  0.50000  0.85322
V10   V   0.50000  0.85322  0.50000
V11   V   0.64678  0.00000  0.00000
V12   V   0.85322  0.50000  0.50000
EC1    EC   0.14651  0.14651  0.35333
EC2    EC   0.14651  0.14651  0.64667
EC3    EC   0.14651  0.35333  0.14651
EC4    EC   0.14651  0.35333  0.85349
EC5    EC   0.14651  0.64667  0.14651
EC6    EC   0.14651  0.64667  0.85349
EC7    EC   0.14651  0.85349  0.35333
EC8    EC   0.14651  0.85349  0.64667
EC9    EC   0.14667  0.35349  0.35349
EC10   EC   0.14667  0.35349  0.64651
EC11   EC   0.14667  0.64651  0.35349
EC12   EC   0.14667  0.64651  0.64651
EC13   EC   0.35333  0.14651  0.14651
EC14   EC   0.35333  0.14651  0.85349
EC15   EC   0.35333  0.85349  0.14651
EC16   EC   0.35333  0.85349  0.85349
EC17   EC   0.35349  0.14667  0.35349
EC18   EC   0.35349  0.14667  0.64651
EC19   EC   0.35349  0.35349  0.14667
EC20   EC   0.35349  0.35349  0.85333
EC21   EC   0.35349  0.64651  0.14667
EC22   EC   0.35349  0.64651  0.85333
EC23   EC   0.35349  0.85333  0.35349
EC24   EC   0.35349  0.85333  0.64651
EC25   EC   0.64651  0.14667  0.35349
EC26   EC   0.64651  0.14667  0.64651
EC27   EC   0.64651  0.35349  0.14667
EC28   EC   0.64651  0.35349  0.85333
EC29   EC   0.64651  0.64651  0.14667
EC30   EC   0.64651  0.64651  0.85333
EC31   EC   0.64651  0.85333  0.35349
EC32   EC   0.64651  0.85333  0.64651
EC33   EC   0.64667  0.14651  0.14651
EC34   EC   0.64667  0.14651  0.85349
EC35   EC   0.64667  0.85349  0.14651
EC36   EC   0.64667  0.85349  0.85349
EC37   EC   0.85333  0.35349  0.35349
EC38   EC   0.85333  0.35349  0.64651
EC39   EC   0.85333  0.64651  0.35349
EC40   EC   0.85333  0.64651  0.64651
EC41   EC   0.85349  0.14651  0.35333
EC42   EC   0.85349  0.14651  0.64667
EC43   EC   0.85349  0.35333  0.14651
EC44   EC   0.85349  0.35333  0.85349
EC45   EC   0.85349  0.64667  0.14651
EC46   EC   0.85349  0.64667  0.85349
EC47   EC   0.85349  0.85349  0.35333
EC48   EC   0.85349  0.85349  0.64667
E1    E   0.07326  0.07326  0.35328
E2    E   0.07326  0.07326  0.64672
E3    E   0.07326  0.35328  0.07326
E4    E   0.07326  0.35328  0.92674
E5    E   0.07326  0.64672  0.07326
E6    E   0.07326  0.64672  0.92674
E7    E   0.07326  0.92674  0.35328
E8    E   0.07326  0.92674  0.64672
E9    E   0.14659  0.25000  0.35341
E10   E   0.14659  0.25000  0.64659
E11   E   0.14659  0.35341  0.25000
E12   E   0.14659  0.35341  0.75000
E13   E   0.14659  0.64659  0.25000
E14   E   0.14659  0.64659  0.75000
E15   E   0.14659  0.75000  0.35341
E16   E   0.14659  0.75000  0.64659
E17   E   0.14672  0.42674  0.42674
E18   E   0.14672  0.42674  0.57326
E19   E   0.14672  0.57326  0.42674
E20   E   0.14672  0.57326  0.57326
E21   E   0.25000  0.14659  0.35341
E22   E   0.25000  0.14659  0.64659
E23   E   0.25000  0.35341  0.14659
E24   E   0.25000  0.35341  0.85341
E25   E   0.25000  0.64659  0.14659
E26   E   0.25000  0.64659  0.85341
E27   E   0.25000  0.85341  0.35341
E28   E   0.25000  0.85341  0.64659
E29   E   0.35328  0.07326  0.07326
E30   E   0.35328  0.07326  0.92674
E31   E   0.35328  0.92674  0.07326
E32   E   0.35328  0.92674  0.92674
E33   E   0.35341  0.14659  0.25000
E34   E   0.35341  0.14659  0.75000
E35   E   0.35341  0.25000  0.14659
E36   E   0.35341  0.25000  0.85341
E37   E   0.35341  0.75000  0.14659
E38   E   0.35341  0.75000  0.85341
E39   E   0.35341  0.85341  0.25000
E40   E   0.35341  0.85341  0.75000
E41   E   0.42674  0.14672  0.42674
E42   E   0.42674  0.14672  0.57326
E43   E   0.42674  0.42674  0.14672
E44   E   0.42674  0.42674  0.85328
E45   E   0.42674  0.57326  0.14672
E46   E   0.42674  0.57326  0.85328
E47   E   0.42674  0.85328  0.42674
E48   E   0.42674  0.85328  0.57326
E49   E   0.57326  0.14672  0.42674
E50   E   0.57326  0.14672  0.57326
E51   E   0.57326  0.42674  0.14672
E52   E   0.57326  0.42674  0.85328
E53   E   0.57326  0.57326  0.14672
E54   E   0.57326  0.57326  0.85328
E55   E   0.57326  0.85328  0.42674
E56   E   0.57326  0.85328  0.57326
E57   E   0.64659  0.14659  0.25000
E58   E   0.64659  0.14659  0.75000
E59   E   0.64659  0.25000  0.14659
E60   E   0.64659  0.25000  0.85341
E61   E   0.64659  0.75000  0.14659
E62   E   0.64659  0.75000  0.85341
E63   E   0.64659  0.85341  0.25000
E64   E   0.64659  0.85341  0.75000
E65   E   0.64672  0.07326  0.07326
E66   E   0.64672  0.07326  0.92674
E67   E   0.64672  0.92674  0.07326
E68   E   0.64672  0.92674  0.92674
E69   E   0.75000  0.14659  0.35341
E70   E   0.75000  0.14659  0.64659
E71   E   0.75000  0.35341  0.14659
E72   E   0.75000  0.35341  0.85341
E73   E   0.75000  0.64659  0.14659
E74   E   0.75000  0.64659  0.85341
E75   E   0.75000  0.85341  0.35341
E76   E   0.75000  0.85341  0.64659
E77   E   0.85328  0.42674  0.42674
E78   E   0.85328  0.42674  0.57326
E79   E   0.85328  0.57326  0.42674
E80   E   0.85328  0.57326  0.57326
E81   E   0.85341  0.25000  0.35341
E82   E   0.85341  0.25000  0.64659
E83   E   0.85341  0.35341  0.25000
E84   E   0.85341  0.35341  0.75000
E85   E   0.85341  0.64659  0.25000
E86   E   0.85341  0.64659  0.75000
E87   E   0.85341  0.75000  0.35341
E88   E   0.85341  0.75000  0.64659
E89   E   0.92674  0.07326  0.35328
E90   E   0.92674  0.07326  0.64672
E91   E   0.92674  0.35328  0.07326
E92   E   0.92674  0.35328  0.92674
E93   E   0.92674  0.64672  0.07326
E94   E   0.92674  0.64672  0.92674
E95   E   0.92674  0.92674  0.35328
E96   E   0.92674  0.92674  0.64672
loop_
