data_mft_P63/mcm  hall_number: 487, V_con: 4, EC_con: 4
_audit_creation_date              2025-03-05
_audit_creation_method            'MOFbuilder_1.0'
_symmetry_space_group_name_H-M    'P1'
_symmetry_Int_Tables_number       1
_symmetry_cell_setting            triclinic
loop_
_symmetry_equiv_pos_as_xyz
  x,y,z
_cell_length_a                    46.005900000000004
_cell_length_b                    46.005900000000004
_cell_length_c                    62.8742
_cell_angle_alpha                 90.0
_cell_angle_beta                  90.0
_cell_angle_gamma                 120.0
loop_
_atom_site_label
_atom_site_type_symbol
_atom_site_fract_x
_atom_site_fract_y
_atom_site_fract_z
V1    V   0.20797  0.54104  0.67048
V2    V   0.20797  0.54104  0.82952
V3    V   0.20797  0.66693  0.17048
V4    V   0.20797  0.66693  0.32952
V5    V   0.33307  0.54104  0.17048
V6    V   0.33307  0.54104  0.32952
V7    V   0.33307  0.79203  0.67048
V8    V   0.33307  0.79203  0.82952
V9    V   0.45896  0.66693  0.67048
V10   V   0.45896  0.66693  0.82952
V11   V   0.45896  0.79203  0.17048
V12   V   0.45896  0.79203  0.32952
V13   V   0.54104  0.20797  0.67048
V14   V   0.54104  0.20797  0.82952
V15   V   0.54104  0.33307  0.17048
V16   V   0.54104  0.33307  0.32952
V17   V   0.66693  0.20797  0.17048
V18   V   0.66693  0.20797  0.32952
V19   V   0.66693  0.45896  0.67048
V20   V   0.66693  0.45896  0.82952
V21   V   0.79203  0.33307  0.67048
V22   V   0.79203  0.33307  0.82952
V23   V   0.79203  0.45896  0.17048
V24   V   0.79203  0.45896  0.32952
EC1    EC   0.12550  0.45883  0.52328
EC2    EC   0.12550  0.45883  0.97672
EC3    EC   0.12550  0.66667  0.02328
EC4    EC   0.12550  0.66667  0.47672
EC5    EC   0.33333  0.45883  0.02328
EC6    EC   0.33333  0.45883  0.47672
EC7    EC   0.33333  0.87450  0.52328
EC8    EC   0.33333  0.87450  0.97672
EC9    EC   0.45883  0.12550  0.52328
EC10   EC   0.45883  0.12550  0.97672
EC11   EC   0.45883  0.33333  0.02328
EC12   EC   0.45883  0.33333  0.47672
EC13   EC   0.54117  0.66667  0.52328
EC14   EC   0.54117  0.66667  0.97672
EC15   EC   0.54117  0.87450  0.02328
EC16   EC   0.54117  0.87450  0.47672
EC17   EC   0.66667  0.12550  0.02328
EC18   EC   0.66667  0.12550  0.47672
EC19   EC   0.66667  0.54117  0.52328
EC20   EC   0.66667  0.54117  0.97672
EC21   EC   0.87450  0.33333  0.52328
EC22   EC   0.87450  0.33333  0.97672
EC23   EC   0.87450  0.54117  0.02328
EC24   EC   0.87450  0.54117  0.47672
E1    E   0.00000  0.39608  0.52328
E2    E   0.00000  0.39608  0.97672
E3    E   0.00000  0.60392  0.02328
E4    E   0.00000  0.60392  0.47672
E5    E   0.12550  0.56275  0.00000
E6    E   0.12550  0.56275  0.50000
E7    E   0.16673  0.49993  0.59688
E8    E   0.16673  0.49993  0.90312
E9    E   0.16673  0.66680  0.09688
E10   E   0.16673  0.66680  0.40312
E11   E   0.20797  0.54104  0.75000
E12   E   0.20797  0.66693  0.25000
E13   E   0.22941  0.45883  0.00000
E14   E   0.22941  0.45883  0.50000
E15   E   0.22941  0.77058  0.00000
E16   E   0.22941  0.77058  0.50000
E17   E   0.22942  0.45883  0.00000
E18   E   0.22942  0.45883  0.50000
E19   E   0.22942  0.77059  0.00000
E20   E   0.22942  0.77059  0.50000
E21   E   0.27052  0.60398  0.17048
E22   E   0.27052  0.60398  0.32952
E23   E   0.27052  0.66654  0.67048
E24   E   0.27052  0.66654  0.82952
E25   E   0.33307  0.54104  0.25000
E26   E   0.33307  0.79203  0.75000
E27   E   0.33320  0.49993  0.09688
E28   E   0.33320  0.49993  0.40312
E29   E   0.33320  0.83327  0.59688
E30   E   0.33320  0.83327  0.90312
E31   E   0.33346  0.60398  0.67048
E32   E   0.33346  0.60398  0.82952
E33   E   0.33346  0.72948  0.17048
E34   E   0.33346  0.72948  0.32952
E35   E   0.39602  0.66654  0.17048
E36   E   0.39602  0.66654  0.32952
E37   E   0.39602  0.72948  0.67048
E38   E   0.39602  0.72948  0.82952
E39   E   0.39608  0.00000  0.52328
E40   E   0.39608  0.00000  0.97672
E41   E   0.39608  0.39608  0.02328
E42   E   0.39608  0.39608  0.47672
E43   E   0.43725  0.56275  0.00000
E44   E   0.43725  0.56275  0.50000
E45   E   0.43725  0.87450  0.00000
E46   E   0.43725  0.87450  0.50000
E47   E   0.45883  0.22941  0.00000
E48   E   0.45883  0.22941  0.50000
E49   E   0.45883  0.22942  0.00000
E50   E   0.45883  0.22942  0.50000
E51   E   0.45896  0.66693  0.75000
E52   E   0.45896  0.79203  0.25000
E53   E   0.49993  0.16673  0.59688
E54   E   0.49993  0.16673  0.90312
E55   E   0.49993  0.33320  0.09688
E56   E   0.49993  0.33320  0.40312
E57   E   0.50007  0.66680  0.59688
E58   E   0.50007  0.66680  0.90312
E59   E   0.50007  0.83327  0.09688
E60   E   0.50007  0.83327  0.40312
E61   E   0.54104  0.20797  0.75000
E62   E   0.54104  0.33307  0.25000
E63   E   0.54117  0.77058  0.00000
E64   E   0.54117  0.77058  0.50000
E65   E   0.54117  0.77059  0.00000
E66   E   0.54117  0.77059  0.50000
E67   E   0.56275  0.12550  0.00000
E68   E   0.56275  0.12550  0.50000
E69   E   0.56275  0.43725  0.00000
E70   E   0.56275  0.43725  0.50000
E71   E   0.60392  0.00000  0.02328
E72   E   0.60392  0.00000  0.47672
E73   E   0.60392  0.60392  0.52328
E74   E   0.60392  0.60392  0.97672
E75   E   0.60398  0.27052  0.17048
E76   E   0.60398  0.27052  0.32952
E77   E   0.60398  0.33346  0.67048
E78   E   0.60398  0.33346  0.82952
E79   E   0.66654  0.27052  0.67048
E80   E   0.66654  0.27052  0.82952
E81   E   0.66654  0.39602  0.17048
E82   E   0.66654  0.39602  0.32952
E83   E   0.66680  0.16673  0.09688
E84   E   0.66680  0.16673  0.40312
E85   E   0.66680  0.50007  0.59688
E86   E   0.66680  0.50007  0.90312
E87   E   0.66693  0.20797  0.25000
E88   E   0.66693  0.45896  0.75000
E89   E   0.72948  0.33346  0.17048
E90   E   0.72948  0.33346  0.32952
E91   E   0.72948  0.39602  0.67048
E92   E   0.72948  0.39602  0.82952
E93   E   0.77058  0.22941  0.00000
E94   E   0.77058  0.22941  0.50000
E95   E   0.77058  0.54117  0.00000
E96   E   0.77058  0.54117  0.50000
E97   E   0.77059  0.22942  0.00000
E98   E   0.77059  0.22942  0.50000
E99   E   0.77059  0.54117  0.00000
E100  E   0.77059  0.54117  0.50000
E101  E   0.79203  0.33307  0.75000
E102  E   0.79203  0.45896  0.25000
E103  E   0.83327  0.33320  0.59688
E104  E   0.83327  0.33320  0.90312
E105  E   0.83327  0.50007  0.09688
E106  E   0.83327  0.50007  0.40312
E107  E   0.87450  0.43725  0.00000
E108  E   0.87450  0.43725  0.50000
loop_
