data_mgc-x_Fd-3m:2  hall_number: 526, V_con: 16, EC_con: 12
_audit_creation_date              2025-03-05
_audit_creation_method            'MOFbuilder_1.0'
_symmetry_space_group_name_H-M    'P1'
_symmetry_Int_Tables_number       1
_symmetry_cell_setting            triclinic
loop_
_symmetry_equiv_pos_as_xyz
  x,y,z
_cell_length_a                    25.118399999999998
_cell_length_b                    25.118399999999998
_cell_length_c                    25.118399999999998
_cell_angle_alpha                 90.0
_cell_angle_beta                  90.0
_cell_angle_gamma                 90.0
loop_
_atom_site_label
_atom_site_type_symbol
_atom_site_fract_x
_atom_site_fract_y
_atom_site_fract_z
V1    V   0.12500  0.12500  0.62500
V2    V   0.12500  0.62500  0.12500
V3    V   0.37500  0.37500  0.37500
V4    V   0.37500  0.87500  0.87500
V5    V   0.62500  0.12500  0.12500
V6    V   0.62500  0.62500  0.62500
V7    V   0.87500  0.37500  0.87500
V8    V   0.87500  0.87500  0.37500
EC1    EC   0.00000  0.00000  0.00000
EC2    EC   0.00000  0.25000  0.25000
EC3    EC   0.00000  0.50000  0.50000
EC4    EC   0.00000  0.75000  0.75000
EC5    EC   0.25000  0.00000  0.25000
EC6    EC   0.25000  0.25000  0.00000
EC7    EC   0.25000  0.50000  0.75000
EC8    EC   0.25000  0.75000  0.50000
EC9    EC   0.50000  0.00000  0.50000
EC10   EC   0.50000  0.25000  0.75000
EC11   EC   0.50000  0.50000  0.00000
EC12   EC   0.50000  0.75000  0.25000
EC13   EC   0.75000  0.00000  0.75000
EC14   EC   0.75000  0.25000  0.50000
EC15   EC   0.75000  0.50000  0.25000
EC16   EC   0.75000  0.75000  0.00000
E1    E   0.00000  0.00000  0.50000
E2    E   0.00000  0.12500  0.12500
E3    E   0.00000  0.25000  0.75000
E4    E   0.00000  0.37500  0.37500
E5    E   0.00000  0.50000  0.00000
E6    E   0.00000  0.62500  0.62500
E7    E   0.00000  0.75000  0.25000
E8    E   0.00000  0.87500  0.87500
E9    E   0.06250  0.06250  0.81250
E10   E   0.06250  0.18750  0.43750
E11   E   0.06250  0.31250  0.56250
E12   E   0.06250  0.31250  0.93750
E13   E   0.06250  0.43750  0.18750
E14   E   0.06250  0.43750  0.81250
E15   E   0.06250  0.56250  0.31250
E16   E   0.06250  0.68750  0.93750
E17   E   0.06250  0.81250  0.06250
E18   E   0.06250  0.81250  0.43750
E19   E   0.06250  0.93750  0.31250
E20   E   0.06250  0.93750  0.68750
E21   E   0.12500  0.00000  0.12500
E22   E   0.12500  0.12500  0.00000
E23   E   0.12500  0.12500  0.25000
E24   E   0.12500  0.25000  0.12500
E25   E   0.12500  0.50000  0.62500
E26   E   0.12500  0.62500  0.50000
E27   E   0.12500  0.62500  0.75000
E28   E   0.12500  0.75000  0.62500
E29   E   0.18750  0.06250  0.43750
E30   E   0.18750  0.18750  0.81250
E31   E   0.18750  0.31250  0.31250
E32   E   0.18750  0.31250  0.68750
E33   E   0.18750  0.43750  0.06250
E34   E   0.18750  0.43750  0.43750
E35   E   0.18750  0.56250  0.93750
E36   E   0.18750  0.68750  0.31250
E37   E   0.18750  0.81250  0.18750
E38   E   0.18750  0.81250  0.81250
E39   E   0.18750  0.93750  0.56250
E40   E   0.18750  0.93750  0.93750
E41   E   0.25000  0.00000  0.75000
E42   E   0.25000  0.12500  0.12500
E43   E   0.25000  0.25000  0.50000
E44   E   0.25000  0.37500  0.87500
E45   E   0.25000  0.50000  0.25000
E46   E   0.25000  0.62500  0.62500
E47   E   0.25000  0.75000  0.00000
E48   E   0.25000  0.87500  0.37500
E49   E   0.31250  0.06250  0.56250
E50   E   0.31250  0.06250  0.93750
E51   E   0.31250  0.18750  0.31250
E52   E   0.31250  0.18750  0.68750
E53   E   0.31250  0.31250  0.18750
E54   E   0.31250  0.43750  0.56250
E55   E   0.31250  0.56250  0.06250
E56   E   0.31250  0.56250  0.43750
E57   E   0.31250  0.68750  0.18750
E58   E   0.31250  0.68750  0.81250
E59   E   0.31250  0.81250  0.68750
E60   E   0.31250  0.93750  0.06250
E61   E   0.37500  0.00000  0.37500
E62   E   0.37500  0.25000  0.87500
E63   E   0.37500  0.37500  0.00000
E64   E   0.37500  0.37500  0.75000
E65   E   0.37500  0.50000  0.87500
E66   E   0.37500  0.75000  0.37500
E67   E   0.37500  0.87500  0.25000
E68   E   0.37500  0.87500  0.50000
E69   E   0.43750  0.06250  0.18750
E70   E   0.43750  0.06250  0.81250
E71   E   0.43750  0.18750  0.06250
E72   E   0.43750  0.18750  0.43750
E73   E   0.43750  0.31250  0.56250
E74   E   0.43750  0.43750  0.18750
E75   E   0.43750  0.56250  0.31250
E76   E   0.43750  0.56250  0.68750
E77   E   0.43750  0.68750  0.56250
E78   E   0.43750  0.68750  0.93750
E79   E   0.43750  0.81250  0.06250
E80   E   0.43750  0.93750  0.68750
E81   E   0.50000  0.00000  0.00000
E82   E   0.50000  0.12500  0.62500
E83   E   0.50000  0.25000  0.25000
E84   E   0.50000  0.37500  0.87500
E85   E   0.50000  0.50000  0.50000
E86   E   0.50000  0.62500  0.12500
E87   E   0.50000  0.75000  0.75000
E88   E   0.50000  0.87500  0.37500
E89   E   0.56250  0.06250  0.31250
E90   E   0.56250  0.18750  0.93750
E91   E   0.56250  0.31250  0.06250
E92   E   0.56250  0.31250  0.43750
E93   E   0.56250  0.43750  0.31250
E94   E   0.56250  0.43750  0.68750
E95   E   0.56250  0.56250  0.81250
E96   E   0.56250  0.68750  0.43750
E97   E   0.56250  0.81250  0.56250
E98   E   0.56250  0.81250  0.93750
E99   E   0.56250  0.93750  0.18750
E100  E   0.56250  0.93750  0.81250
E101  E   0.62500  0.00000  0.62500
E102  E   0.62500  0.12500  0.50000
E103  E   0.62500  0.12500  0.75000
E104  E   0.62500  0.25000  0.62500
E105  E   0.62500  0.50000  0.12500
E106  E   0.62500  0.62500  0.00000
E107  E   0.62500  0.62500  0.25000
E108  E   0.62500  0.75000  0.12500
E109  E   0.68750  0.06250  0.93750
E110  E   0.68750  0.18750  0.31250
E111  E   0.68750  0.31250  0.18750
E112  E   0.68750  0.31250  0.81250
E113  E   0.68750  0.43750  0.56250
E114  E   0.68750  0.43750  0.93750
E115  E   0.68750  0.56250  0.43750
E116  E   0.68750  0.68750  0.81250
E117  E   0.68750  0.81250  0.31250
E118  E   0.68750  0.81250  0.68750
E119  E   0.68750  0.93750  0.06250
E120  E   0.68750  0.93750  0.43750
E121  E   0.75000  0.00000  0.25000
E122  E   0.75000  0.12500  0.62500
E123  E   0.75000  0.25000  0.00000
E124  E   0.75000  0.37500  0.37500
E125  E   0.75000  0.50000  0.75000
E126  E   0.75000  0.62500  0.12500
E127  E   0.75000  0.75000  0.50000
E128  E   0.75000  0.87500  0.87500
E129  E   0.81250  0.06250  0.06250
E130  E   0.81250  0.06250  0.43750
E131  E   0.81250  0.18750  0.18750
E132  E   0.81250  0.18750  0.81250
E133  E   0.81250  0.31250  0.68750
E134  E   0.81250  0.43750  0.06250
E135  E   0.81250  0.56250  0.56250
E136  E   0.81250  0.56250  0.93750
E137  E   0.81250  0.68750  0.31250
E138  E   0.81250  0.68750  0.68750
E139  E   0.81250  0.81250  0.18750
E140  E   0.81250  0.93750  0.56250
E141  E   0.87500  0.00000  0.87500
E142  E   0.87500  0.25000  0.37500
E143  E   0.87500  0.37500  0.25000
E144  E   0.87500  0.37500  0.50000
E145  E   0.87500  0.50000  0.37500
E146  E   0.87500  0.75000  0.87500
E147  E   0.87500  0.87500  0.00000
E148  E   0.87500  0.87500  0.75000
E149  E   0.93750  0.06250  0.31250
E150  E   0.93750  0.06250  0.68750
E151  E   0.93750  0.18750  0.56250
E152  E   0.93750  0.18750  0.93750
E153  E   0.93750  0.31250  0.06250
E154  E   0.93750  0.43750  0.68750
E155  E   0.93750  0.56250  0.18750
E156  E   0.93750  0.56250  0.81250
E157  E   0.93750  0.68750  0.06250
E158  E   0.93750  0.68750  0.43750
E159  E   0.93750  0.81250  0.56250
E160  E   0.93750  0.93750  0.18750
loop_
