data_mgg_I4/mmm  hall_number: 424, V_con: 4, EC_con: 4
_audit_creation_date              2025-03-05
_audit_creation_method            'MOFbuilder_1.0'
_symmetry_space_group_name_H-M    'P1'
_symmetry_Int_Tables_number       1
_symmetry_cell_setting            triclinic
loop_
_symmetry_equiv_pos_as_xyz
  x,y,z
_cell_length_a                    31.5477
_cell_length_b                    31.5477
_cell_length_c                    31.5455
_cell_angle_alpha                 90.0
_cell_angle_beta                  90.0
_cell_angle_gamma                 90.0
loop_
_atom_site_label
_atom_site_type_symbol
_atom_site_fract_x
_atom_site_fract_y
_atom_site_fract_z
V1    V   0.00000  0.00000  0.34156
V2    V   0.00000  0.00000  0.65844
V3    V   0.50000  0.50000  0.15844
V4    V   0.50000  0.50000  0.84156
EC1    EC   0.00000  0.31698  0.34150
EC2    EC   0.00000  0.31698  0.65850
EC3    EC   0.00000  0.68302  0.34150
EC4    EC   0.00000  0.68302  0.65850
EC5    EC   0.18302  0.50000  0.15850
EC6    EC   0.18302  0.50000  0.84150
EC7    EC   0.31698  0.00000  0.34150
EC8    EC   0.31698  0.00000  0.65850
EC9    EC   0.50000  0.18302  0.15850
EC10   EC   0.50000  0.18302  0.84150
EC11   EC   0.50000  0.81698  0.15850
EC12   EC   0.50000  0.81698  0.84150
EC13   EC   0.68302  0.00000  0.34150
EC14   EC   0.68302  0.00000  0.65850
EC15   EC   0.81698  0.50000  0.15850
EC16   EC   0.81698  0.50000  0.84150
E1    E   0.00000  0.15849  0.34153
E2    E   0.00000  0.15849  0.65847
E3    E   0.00000  0.31698  0.50000
E4    E   0.00000  0.68302  0.50000
E5    E   0.00000  0.84151  0.34153
E6    E   0.00000  0.84151  0.65847
E7    E   0.09151  0.40849  0.25000
E8    E   0.09151  0.40849  0.75000
E9    E   0.09151  0.59151  0.25000
E10   E   0.09151  0.59151  0.75000
E11   E   0.09151  0.40849  0.25000
E12   E   0.09151  0.40849  0.75000
E13   E   0.09151  0.59151  0.25000
E14   E   0.09151  0.59151  0.75000
E15   E   0.15849  0.00000  0.34153
E16   E   0.15849  0.00000  0.65847
E17   E   0.18302  0.50000  0.00000
E18   E   0.31698  0.00000  0.50000
E19   E   0.34151  0.50000  0.15847
E20   E   0.34151  0.50000  0.84153
E21   E   0.40849  0.09151  0.25000
E22   E   0.40849  0.09151  0.75000
E23   E   0.40849  0.09151  0.25000
E24   E   0.40849  0.09151  0.75000
E25   E   0.40849  0.90849  0.25000
E26   E   0.40849  0.90849  0.75000
E27   E   0.50000  0.18302  0.00000
E28   E   0.50000  0.34151  0.15847
E29   E   0.50000  0.34151  0.84153
E30   E   0.50000  0.65849  0.15847
E31   E   0.50000  0.65849  0.84153
E32   E   0.50000  0.81698  0.00000
E33   E   0.59151  0.09151  0.25000
E34   E   0.59151  0.09151  0.75000
E35   E   0.59151  0.09151  0.25000
E36   E   0.59151  0.09151  0.75000
E37   E   0.59151  0.90849  0.25000
E38   E   0.59151  0.90849  0.75000
E39   E   0.65849  0.50000  0.15847
E40   E   0.65849  0.50000  0.84153
E41   E   0.68302  0.00000  0.50000
E42   E   0.81698  0.50000  0.00000
E43   E   0.84151  0.00000  0.34153
E44   E   0.84151  0.00000  0.65847
E45   E   0.90849  0.40849  0.25000
E46   E   0.90849  0.40849  0.75000
E47   E   0.90849  0.59151  0.25000
E48   E   0.90849  0.59151  0.75000
loop_
