data_mmo_R32:H  hall_number: 445, V_con: 6
_audit_creation_date              2025-03-05
_audit_creation_method            'MOFbuilder_1.0'
_symmetry_space_group_name_H-M    'P1'
_symmetry_Int_Tables_number       1
_symmetry_cell_setting            triclinic
loop_
_symmetry_equiv_pos_as_xyz
  x,y,z
_cell_length_a                    14.130799999999999
_cell_length_b                    14.130799999999999
_cell_length_c                    17.348399999999998
_cell_angle_alpha                 90.0
_cell_angle_beta                  90.0
_cell_angle_gamma                 120.0
loop_
_atom_site_label
_atom_site_type_symbol
_atom_site_fract_x
_atom_site_fract_y
_atom_site_fract_z
V1    V   0.00000  0.00000  0.33333
V2    V   0.00000  0.00000  0.66667
V3    V   0.00000  0.33333  0.00000
V4    V   0.00000  0.66667  0.00000
V5    V   0.33333  0.00000  0.00000
V6    V   0.66667  0.00000  0.00000
E1    E   0.16667  0.83333  0.83333
E2    E   0.16667  0.16667  0.83333
E3    E   0.16667  0.66667  0.16667
E4    E   0.16667  0.83333  0.16667
E5    E   0.16667  0.16667  0.66667
E6    E   0.33333  0.83333  0.83333
E7    E   0.66667  0.16667  0.16667
E8    E   0.83333  0.33333  0.83333
E9    E   0.83333  0.16667  0.83333
E10   E   0.83333  0.16667  0.16667
E11   E   0.83333  0.83333  0.33333
E12   E   0.83333  0.83333  0.16667
loop_
