data_moc_Cmmm  hall_number: 310, V_con: 4, EC_con: 3
_audit_creation_date              2025-03-05
_audit_creation_method            'MOFbuilder_1.0'
_symmetry_space_group_name_H-M    'P1'
_symmetry_Int_Tables_number       1
_symmetry_cell_setting            triclinic
loop_
_symmetry_equiv_pos_as_xyz
  x,y,z
_cell_length_a                    39.0336
_cell_length_b                    18.1338
_cell_length_c                    22.881999999999998
_cell_angle_alpha                 90.0
_cell_angle_beta                  90.0
_cell_angle_gamma                 90.0
loop_
_atom_site_label
_atom_site_type_symbol
_atom_site_fract_x
_atom_site_fract_y
_atom_site_fract_z
V1    V   0.19597  0.50000  0.00000
V2    V   0.30403  0.00000  0.00000
V3    V   0.69597  0.00000  0.00000
V4    V   0.80403  0.50000  0.00000
EC1    EC   0.00000  0.50000  0.28149
EC2    EC   0.00000  0.50000  0.71851
EC3    EC   0.50000  0.00000  0.28149
EC4    EC   0.50000  0.00000  0.71851
E1    E   0.00000  0.50000  0.50000
E2    E   0.09799  0.50000  0.14074
E3    E   0.09799  0.50000  0.85926
E4    E   0.25000  0.25000  0.00000
E5    E   0.25000  0.75000  0.00000
E6    E   0.40201  0.00000  0.14074
E7    E   0.40201  0.00000  0.85926
E8    E   0.50000  0.00000  0.50000
E9    E   0.59799  0.00000  0.14074
E10   E   0.59799  0.00000  0.85926
E11   E   0.75000  0.25000  0.00000
E12   E   0.75000  0.75000  0.00000
E13   E   0.90201  0.50000  0.14074
E14   E   0.90201  0.50000  0.85926
loop_
