data_nab_I-4m2  hall_number: 396, V_con: 4, EC_con: 4
_audit_creation_date              2025-03-05
_audit_creation_method            'MOFbuilder_1.0'
_symmetry_space_group_name_H-M    'P1'
_symmetry_Int_Tables_number       1
_symmetry_cell_setting            triclinic
loop_
_symmetry_equiv_pos_as_xyz
  x,y,z
_cell_length_a                    23.1719
_cell_length_b                    23.1719
_cell_length_c                    41.921299999999995
_cell_angle_alpha                 90.0
_cell_angle_beta                  90.0
_cell_angle_gamma                 90.0
loop_
_atom_site_label
_atom_site_type_symbol
_atom_site_fract_x
_atom_site_fract_y
_atom_site_fract_z
V1    V   0.00000  0.00000  0.00000
V2    V   0.50000  0.50000  0.50000
EC1    EC   0.00000  0.21578  0.20658
EC2    EC   0.00000  0.78422  0.20658
EC3    EC   0.21578  0.00000  0.79342
EC4    EC   0.28422  0.50000  0.29342
EC5    EC   0.50000  0.28422  0.70658
EC6    EC   0.50000  0.71578  0.70658
EC7    EC   0.71578  0.50000  0.29342
EC8    EC   0.78422  0.00000  0.79342
E1    E   0.00000  0.00000  0.20658
E2    E   0.00000  0.00000  0.79342
E3    E   0.00000  0.10789  0.10329
E4    E   0.00000  0.89211  0.10329
E5    E   0.10789  0.00000  0.89671
E6    E   0.14211  0.35789  0.25000
E7    E   0.14211  0.64211  0.25000
E8    E   0.14211  0.35789  0.25000
E9    E   0.14211  0.64211  0.25000
E10   E   0.35789  0.14211  0.75000
E11   E   0.35789  0.85789  0.75000
E12   E   0.35789  0.14211  0.75000
E13   E   0.35789  0.85789  0.75000
E14   E   0.39211  0.50000  0.39671
E15   E   0.50000  0.39211  0.60329
E16   E   0.50000  0.50000  0.29342
E17   E   0.50000  0.50000  0.70658
E18   E   0.50000  0.60789  0.60329
E19   E   0.60789  0.50000  0.39671
E20   E   0.64211  0.14211  0.75000
E21   E   0.64211  0.14211  0.75000
E22   E   0.64211  0.85789  0.75000
E23   E   0.85789  0.35789  0.25000
E24   E   0.85789  0.35789  0.25000
E25   E   0.85789  0.64211  0.25000
E26   E   0.89211  0.00000  0.89671
loop_
