data_nbo-a-e_Im-3m  hall_number: 529, V_con: 4, EC_con: 4
_audit_creation_date              2025-03-05
_audit_creation_method            'MOFbuilder_1.0'
_symmetry_space_group_name_H-M    'P1'
_symmetry_Int_Tables_number       1
_symmetry_cell_setting            triclinic
loop_
_symmetry_equiv_pos_as_xyz
  x,y,z
_cell_length_a                    54.641099999999994
_cell_length_b                    54.641099999999994
_cell_length_c                    54.641099999999994
_cell_angle_alpha                 90.0
_cell_angle_beta                  90.0
_cell_angle_gamma                 90.0
loop_
_atom_site_label
_atom_site_type_symbol
_atom_site_fract_x
_atom_site_fract_y
_atom_site_fract_z
V1    V   0.00000  0.40849  0.40849
V2    V   0.00000  0.40849  0.59151
V3    V   0.00000  0.59151  0.40849
V4    V   0.00000  0.59151  0.59151
V5    V   0.09151  0.09151  0.50000
V6    V   0.09151  0.50000  0.09151
V7    V   0.09151  0.50000  0.90849
V8    V   0.09151  0.90849  0.50000
V9    V   0.40849  0.00000  0.40849
V10   V   0.40849  0.00000  0.59151
V11   V   0.40849  0.40849  0.00000
V12   V   0.40849  0.59151  0.00000
V13   V   0.50000  0.09151  0.09151
V14   V   0.50000  0.09151  0.90849
V15   V   0.50000  0.90849  0.09151
V16   V   0.50000  0.90849  0.90849
V17   V   0.59151  0.00000  0.40849
V18   V   0.59151  0.00000  0.59151
V19   V   0.59151  0.40849  0.00000
V20   V   0.59151  0.59151  0.00000
V21   V   0.90849  0.09151  0.50000
V22   V   0.90849  0.50000  0.09151
V23   V   0.90849  0.50000  0.90849
V24   V   0.90849  0.90849  0.50000
EC1    EC   0.00000  0.25000  0.50000
EC2    EC   0.00000  0.50000  0.25000
EC3    EC   0.00000  0.50000  0.75000
EC4    EC   0.00000  0.75000  0.50000
EC5    EC   0.25000  0.00000  0.50000
EC6    EC   0.25000  0.50000  0.00000
EC7    EC   0.50000  0.00000  0.25000
EC8    EC   0.50000  0.00000  0.75000
EC9    EC   0.50000  0.25000  0.00000
EC10   EC   0.50000  0.75000  0.00000
EC11   EC   0.75000  0.00000  0.50000
EC12   EC   0.75000  0.50000  0.00000
E1    E   0.00000  0.09151  0.50000
E2    E   0.00000  0.32925  0.45425
E3    E   0.00000  0.32925  0.54575
E4    E   0.00000  0.40849  0.50000
E5    E   0.00000  0.45425  0.32925
E6    E   0.00000  0.45425  0.67075
E7    E   0.00000  0.50000  0.09151
E8    E   0.00000  0.50000  0.40849
E9    E   0.00000  0.50000  0.59151
E10   E   0.00000  0.50000  0.90849
E11   E   0.00000  0.54575  0.32925
E12   E   0.00000  0.54575  0.67075
E13   E   0.00000  0.59151  0.50000
E14   E   0.00000  0.67075  0.45425
E15   E   0.00000  0.67075  0.54575
E16   E   0.00000  0.90849  0.50000
E17   E   0.04575  0.17075  0.50000
E18   E   0.04575  0.50000  0.17075
E19   E   0.04575  0.50000  0.82925
E20   E   0.04575  0.82925  0.50000
E21   E   0.09151  0.00000  0.50000
E22   E   0.09151  0.50000  0.00000
E23   E   0.17075  0.04575  0.50000
E24   E   0.17075  0.50000  0.04575
E25   E   0.17075  0.50000  0.95425
E26   E   0.17075  0.95425  0.50000
E27   E   0.32925  0.00000  0.45425
E28   E   0.32925  0.00000  0.54575
E29   E   0.32925  0.45425  0.00000
E30   E   0.32925  0.54575  0.00000
E31   E   0.40849  0.00000  0.50000
E32   E   0.40849  0.50000  0.00000
E33   E   0.45425  0.00000  0.32925
E34   E   0.45425  0.00000  0.67075
E35   E   0.45425  0.32925  0.00000
E36   E   0.45425  0.67075  0.00000
E37   E   0.50000  0.00000  0.09151
E38   E   0.50000  0.00000  0.40849
E39   E   0.50000  0.00000  0.59151
E40   E   0.50000  0.00000  0.90849
E41   E   0.50000  0.04575  0.17075
E42   E   0.50000  0.04575  0.82925
E43   E   0.50000  0.09151  0.00000
E44   E   0.50000  0.17075  0.04575
E45   E   0.50000  0.17075  0.95425
E46   E   0.50000  0.40849  0.00000
E47   E   0.50000  0.59151  0.00000
E48   E   0.50000  0.82925  0.04575
E49   E   0.50000  0.82925  0.95425
E50   E   0.50000  0.90849  0.00000
E51   E   0.50000  0.95425  0.17075
E52   E   0.50000  0.95425  0.82925
E53   E   0.54575  0.00000  0.32925
E54   E   0.54575  0.00000  0.67075
E55   E   0.54575  0.32925  0.00000
E56   E   0.54575  0.67075  0.00000
E57   E   0.59151  0.00000  0.50000
E58   E   0.59151  0.50000  0.00000
E59   E   0.67075  0.00000  0.45425
E60   E   0.67075  0.00000  0.54575
E61   E   0.67075  0.45425  0.00000
E62   E   0.67075  0.54575  0.00000
E63   E   0.82925  0.04575  0.50000
E64   E   0.82925  0.50000  0.04575
E65   E   0.82925  0.50000  0.95425
E66   E   0.82925  0.95425  0.50000
E67   E   0.90849  0.00000  0.50000
E68   E   0.90849  0.50000  0.00000
E69   E   0.95425  0.17075  0.50000
E70   E   0.95425  0.50000  0.17075
E71   E   0.95425  0.50000  0.82925
E72   E   0.95425  0.82925  0.50000
loop_
