data_ncf_I4/m  hall_number: 363, V_con: 9
_audit_creation_date              2025-03-05
_audit_creation_method            'MOFbuilder_1.0'
_symmetry_space_group_name_H-M    'P1'
_symmetry_Int_Tables_number       1
_symmetry_cell_setting            triclinic
loop_
_symmetry_equiv_pos_as_xyz
  x,y,z
_cell_length_a                    22.360699999999998
_cell_length_b                    22.360699999999998
_cell_length_c                    14.1421
_cell_angle_alpha                 90.0
_cell_angle_beta                  90.0
_cell_angle_gamma                 90.0
loop_
_atom_site_label
_atom_site_type_symbol
_atom_site_fract_x
_atom_site_fract_y
_atom_site_fract_z
V1    V   0.10000  0.70000  0.50000
V2    V   0.20000  0.40000  0.00000
V3    V   0.30000  0.10000  0.50000
V4    V   0.40000  0.80000  0.00000
V5    V   0.60000  0.20000  0.00000
V6    V   0.70000  0.90000  0.50000
V7    V   0.80000  0.60000  0.00000
V8    V   0.90000  0.30000  0.50000
E1    E   0.00000  0.50000  0.00000
E2    E   0.00000  0.50000  0.50000
E3    E   0.05000  0.35000  0.25000
E4    E   0.05000  0.35000  0.75000
E5    E   0.10000  0.20000  0.50000
E6    E   0.15000  0.55000  0.25000
E7    E   0.15000  0.55000  0.75000
E8    E   0.20000  0.90000  0.50000
E9    E   0.25000  0.25000  0.25000
E10   E   0.25000  0.25000  0.75000
E11   E   0.25000  0.75000  0.25000
E12   E   0.25000  0.75000  0.75000
E13   E   0.30000  0.60000  0.00000
E14   E   0.35000  0.95000  0.25000
E15   E   0.35000  0.95000  0.75000
E16   E   0.40000  0.30000  0.00000
E17   E   0.45000  0.15000  0.25000
E18   E   0.45000  0.15000  0.75000
E19   E   0.50000  0.00000  0.00000
E20   E   0.50000  0.00000  0.50000
E21   E   0.55000  0.85000  0.25000
E22   E   0.55000  0.85000  0.75000
E23   E   0.60000  0.70000  0.00000
E24   E   0.65000  0.05000  0.25000
E25   E   0.65000  0.05000  0.75000
E26   E   0.70000  0.40000  0.00000
E27   E   0.75000  0.25000  0.25000
E28   E   0.75000  0.25000  0.75000
E29   E   0.75000  0.75000  0.25000
E30   E   0.75000  0.75000  0.75000
E31   E   0.80000  0.10000  0.50000
E32   E   0.85000  0.45000  0.25000
E33   E   0.85000  0.45000  0.75000
E34   E   0.90000  0.80000  0.50000
E35   E   0.95000  0.65000  0.25000
E36   E   0.95000  0.65000  0.75000
loop_
