data_ncl_R-3:H  hall_number: 148, V_con: 9
_audit_creation_date              2025-03-05
_audit_creation_method            'MOFbuilder_1.0'
_symmetry_space_group_name_H-M    'P1'
_symmetry_Int_Tables_number       1
_symmetry_cell_setting            triclinic
loop_
_symmetry_equiv_pos_as_xyz
  x,y,z
_cell_length_a                    31.798099999999998
_cell_length_b                    31.798099999999998
_cell_length_c                    16.329800000000002
_cell_angle_alpha                 90.0
_cell_angle_beta                  90.0
_cell_angle_gamma                 120.0
loop_
_atom_site_label
_atom_site_type_symbol
_atom_site_fract_x
_atom_site_fract_y
_atom_site_fract_z
V1    V   0.17582  0.18681  0.25000
V2    V   0.32418  0.68681  0.25000
V3    V   0.67582  0.18681  0.75000
V4    V   0.82418  0.68681  0.75000
E1    E   0.09341  0.00549  0.25000
E2    E   0.16667  0.33333  0.33333
E3    E   0.18132  0.09890  0.00000
E4    E   0.18132  0.09890  0.50000
E5    E   0.23993  0.83883  0.08333
E6    E   0.26007  0.33883  0.08333
E7    E   0.31868  0.59890  0.00000
E8    E   0.31868  0.59890  0.50000
E9    E   0.33333  0.83333  0.33333
E10   E   0.40659  0.50549  0.25000
E11   E   0.59341  0.00549  0.75000
E12   E   0.66667  0.33333  0.66667
E13   E   0.68132  0.09890  0.00000
E14   E   0.68132  0.09890  0.50000
E15   E   0.73993  0.83883  0.91667
E16   E   0.76007  0.33883  0.91667
E17   E   0.81868  0.59890  0.00000
E18   E   0.81868  0.59890  0.50000
E19   E   0.83333  0.83333  0.66667
E20   E   0.90659  0.50549  0.75000
loop_
