data_ngc_I41/amd:2  hall_number: 427, V_con: 9
_audit_creation_date              2025-03-05
_audit_creation_method            'MOFbuilder_1.0'
_symmetry_space_group_name_H-M    'P1'
_symmetry_Int_Tables_number       1
_symmetry_cell_setting            triclinic
loop_
_symmetry_equiv_pos_as_xyz
  x,y,z
_cell_length_a                    9.3638
_cell_length_b                    9.3638
_cell_length_c                    35.1747
_cell_angle_alpha                 90.0
_cell_angle_beta                  90.0
_cell_angle_gamma                 90.0
loop_
_atom_site_label
_atom_site_type_symbol
_atom_site_fract_x
_atom_site_fract_y
_atom_site_fract_z
V1    V   0.00000  0.25000  0.01807
V2    V   0.00000  0.25000  0.73193
V3    V   0.00000  0.75000  0.26807
V4    V   0.00000  0.75000  0.98193
V5    V   0.50000  0.25000  0.48193
V6    V   0.50000  0.25000  0.76807
V7    V   0.50000  0.75000  0.23193
V8    V   0.50000  0.75000  0.51807
E1    E   0.00000  0.00000  0.14307
E2    E   0.00000  0.00000  0.85693
E3    E   0.00000  0.25000  0.87500
E4    E   0.00000  0.50000  0.14307
E5    E   0.00000  0.50000  0.85693
E6    E   0.00000  0.75000  0.12500
E7    E   0.25000  0.00000  0.12500
E8    E   0.25000  0.00000  0.37500
E9    E   0.25000  0.00000  0.62500
E10   E   0.25000  0.00000  0.87500
E11   E   0.25000  0.25000  0.60693
E12   E   0.25000  0.25000  0.89307
E13   E   0.25000  0.50000  0.12500
E14   E   0.25000  0.50000  0.37500
E15   E   0.25000  0.50000  0.62500
E16   E   0.25000  0.50000  0.87500
E17   E   0.25000  0.75000  0.10693
E18   E   0.25000  0.75000  0.39307
E19   E   0.50000  0.00000  0.35693
E20   E   0.50000  0.00000  0.64307
E21   E   0.50000  0.25000  0.62500
E22   E   0.50000  0.50000  0.35693
E23   E   0.50000  0.50000  0.64307
E24   E   0.50000  0.75000  0.37500
E25   E   0.75000  0.00000  0.12500
E26   E   0.75000  0.00000  0.37500
E27   E   0.75000  0.00000  0.62500
E28   E   0.75000  0.00000  0.87500
E29   E   0.75000  0.25000  0.60693
E30   E   0.75000  0.25000  0.89307
E31   E   0.75000  0.50000  0.12500
E32   E   0.75000  0.50000  0.37500
E33   E   0.75000  0.50000  0.62500
E34   E   0.75000  0.50000  0.87500
E35   E   0.75000  0.75000  0.10693
E36   E   0.75000  0.75000  0.39307
loop_
