data_nia-e_P63/mmc  hall_number: 488, V_con: 7
_audit_creation_date              2025-03-05
_audit_creation_method            'MOFbuilder_1.0'
_symmetry_space_group_name_H-M    'P1'
_symmetry_Int_Tables_number       1
_symmetry_cell_setting            triclinic
loop_
_symmetry_equiv_pos_as_xyz
  x,y,z
_cell_length_a                    20.0
_cell_length_b                    20.0
_cell_length_c                    36.3298
_cell_angle_alpha                 90.0
_cell_angle_beta                  90.0
_cell_angle_gamma                 120.0
loop_
_atom_site_label
_atom_site_type_symbol
_atom_site_fract_x
_atom_site_fract_y
_atom_site_fract_z
V1    V   0.16666  0.33333  0.11237
V2    V   0.16666  0.33333  0.38763
V3    V   0.16666  0.83333  0.11237
V4    V   0.16666  0.83333  0.38763
V5    V   0.16667  0.33333  0.11237
V6    V   0.16667  0.33333  0.38763
V7    V   0.16667  0.83334  0.11237
V8    V   0.16667  0.83334  0.38763
V9    V   0.33333  0.16666  0.61237
V10   V   0.33333  0.16666  0.88763
V11   V   0.33333  0.16667  0.61237
V12   V   0.33333  0.16667  0.88763
V13   V   0.66667  0.83333  0.11237
V14   V   0.66667  0.83333  0.38763
V15   V   0.66667  0.83334  0.11237
V16   V   0.66667  0.83334  0.38763
V17   V   0.83333  0.16666  0.61237
V18   V   0.83333  0.16666  0.88763
V19   V   0.83333  0.66667  0.61237
V20   V   0.83333  0.66667  0.88763
V21   V   0.83334  0.16667  0.61237
V22   V   0.83334  0.16667  0.88763
V23   V   0.83334  0.66667  0.61237
V24   V   0.83334  0.66667  0.88763
E1    E   0.00000  0.25000  0.00000
E2    E   0.00000  0.25000  0.50000
E3    E   0.00000  0.75000  0.00000
E4    E   0.00000  0.75000  0.50000
E5    E   0.08333  0.16667  0.61237
E6    E   0.08333  0.16667  0.88763
E7    E   0.08333  0.91666  0.61237
E8    E   0.08333  0.91666  0.88763
E9    E   0.08334  0.16667  0.61237
E10   E   0.08334  0.16667  0.88763
E11   E   0.08334  0.91667  0.61237
E12   E   0.08334  0.91667  0.88763
E13   E   0.16666  0.33333  0.25000
E14   E   0.16666  0.83333  0.25000
E15   E   0.16667  0.08333  0.11237
E16   E   0.16667  0.08333  0.38763
E17   E   0.16667  0.08334  0.11237
E18   E   0.16667  0.08334  0.38763
E19   E   0.16667  0.33333  0.25000
E20   E   0.16667  0.58333  0.11237
E21   E   0.16667  0.58333  0.38763
E22   E   0.16667  0.58334  0.11237
E23   E   0.16667  0.58334  0.38763
E24   E   0.16667  0.83334  0.25000
E25   E   0.25000  0.00000  0.00000
E26   E   0.25000  0.00000  0.50000
E27   E   0.25000  0.25000  0.00000
E28   E   0.25000  0.25000  0.50000
E29   E   0.33333  0.16666  0.75000
E30   E   0.33333  0.16667  0.75000
E31   E   0.41666  0.58333  0.11237
E32   E   0.41666  0.58333  0.38763
E33   E   0.41666  0.83333  0.11237
E34   E   0.41666  0.83333  0.38763
E35   E   0.41667  0.58334  0.11237
E36   E   0.41667  0.58334  0.38763
E37   E   0.41667  0.83333  0.11237
E38   E   0.41667  0.83333  0.38763
E39   E   0.58333  0.16667  0.61237
E40   E   0.58333  0.16667  0.88763
E41   E   0.58333  0.41666  0.61237
E42   E   0.58333  0.41666  0.88763
E43   E   0.58334  0.16667  0.61237
E44   E   0.58334  0.16667  0.88763
E45   E   0.58334  0.41667  0.61237
E46   E   0.58334  0.41667  0.88763
E47   E   0.66667  0.83333  0.25000
E48   E   0.66667  0.83334  0.25000
E49   E   0.75000  0.00000  0.00000
E50   E   0.75000  0.00000  0.50000
E51   E   0.75000  0.75000  0.00000
E52   E   0.75000  0.75000  0.50000
E53   E   0.83333  0.16666  0.75000
E54   E   0.83333  0.41666  0.61237
E55   E   0.83333  0.41666  0.88763
E56   E   0.83333  0.41667  0.61237
E57   E   0.83333  0.41667  0.88763
E58   E   0.83333  0.66667  0.75000
E59   E   0.83333  0.91666  0.61237
E60   E   0.83333  0.91666  0.88763
E61   E   0.83333  0.91667  0.61237
E62   E   0.83333  0.91667  0.88763
E63   E   0.83334  0.16667  0.75000
E64   E   0.83334  0.66667  0.75000
E65   E   0.91666  0.08333  0.11237
E66   E   0.91666  0.08333  0.38763
E67   E   0.91666  0.83333  0.11237
E68   E   0.91666  0.83333  0.38763
E69   E   0.91667  0.08334  0.11237
E70   E   0.91667  0.08334  0.38763
E71   E   0.91667  0.83333  0.11237
E72   E   0.91667  0.83333  0.38763
loop_
