data_niq_I12/a1  hall_number: 107, V_con: 4, EC_con: 3
_audit_creation_date              2025-03-05
_audit_creation_method            'MOFbuilder_1.0'
_symmetry_space_group_name_H-M    'P1'
_symmetry_Int_Tables_number       1
_symmetry_cell_setting            triclinic
loop_
_symmetry_equiv_pos_as_xyz
  x,y,z
_cell_length_a                    35.487899999999996
_cell_length_b                    30.954700000000003
_cell_length_c                    28.321299999999997
_cell_angle_alpha                 90.0
_cell_angle_beta                  100.8941
_cell_angle_gamma                 90.0
loop_
_atom_site_label
_atom_site_type_symbol
_atom_site_fract_x
_atom_site_fract_y
_atom_site_fract_z
V1    V   0.10652  0.09344  0.46558
V2    V   0.10652  0.40656  0.53442
V3    V   0.39348  0.09344  0.96558
V4    V   0.39348  0.40656  0.03442
V5    V   0.60652  0.59344  0.96558
V6    V   0.60652  0.90656  0.03442
V7    V   0.89348  0.59344  0.46558
V8    V   0.89348  0.90656  0.53442
EC1    EC   0.05402  0.12205  0.10742
EC2    EC   0.05402  0.37795  0.89258
EC3    EC   0.44598  0.12205  0.60742
EC4    EC   0.44598  0.37795  0.39258
EC5    EC   0.55402  0.62205  0.60742
EC6    EC   0.55402  0.87795  0.39258
EC7    EC   0.94598  0.62205  0.10742
EC8    EC   0.94598  0.87795  0.89258
E1    E   0.00000  0.00000  0.00000
E2    E   0.00000  0.00000  0.50000
E3    E   0.00000  0.50000  0.00000
E4    E   0.00000  0.50000  0.50000
E5    E   0.08027  0.10775  0.28650
E6    E   0.08027  0.23570  0.96350
E7    E   0.08027  0.26430  0.03650
E8    E   0.08027  0.39225  0.71350
E9    E   0.25000  0.09344  0.00000
E10   E   0.25000  0.09344  0.50000
E11   E   0.25000  0.40656  0.00000
E12   E   0.25000  0.40656  0.50000
E13   E   0.41973  0.10775  0.78650
E14   E   0.41973  0.23570  0.46350
E15   E   0.41973  0.26430  0.53650
E16   E   0.41973  0.39225  0.21350
E17   E   0.50000  0.00000  0.00000
E18   E   0.50000  0.00000  0.50000
E19   E   0.50000  0.50000  0.00000
E20   E   0.50000  0.50000  0.50000
E21   E   0.58027  0.60775  0.78650
E22   E   0.58027  0.73570  0.46350
E23   E   0.58027  0.76430  0.53650
E24   E   0.58027  0.89225  0.21350
E25   E   0.75000  0.59344  0.00000
E26   E   0.75000  0.59344  0.50000
E27   E   0.75000  0.90656  0.00000
E28   E   0.75000  0.90656  0.50000
E29   E   0.91973  0.60775  0.28650
E30   E   0.91973  0.73570  0.96350
E31   E   0.91973  0.76430  0.03650
E32   E   0.91973  0.89225  0.71350
loop_
