data_nir_I12/a1  hall_number: 107, V_con: 4, EC_con: 3
_audit_creation_date              2025-03-05
_audit_creation_method            'MOFbuilder_1.0'
_symmetry_space_group_name_H-M    'P1'
_symmetry_Int_Tables_number       1
_symmetry_cell_setting            triclinic
loop_
_symmetry_equiv_pos_as_xyz
  x,y,z
_cell_length_a                    35.7655
_cell_length_b                    27.7344
_cell_length_c                    31.581000000000003
_cell_angle_alpha                 90.0
_cell_angle_beta                  111.4191
_cell_angle_gamma                 90.0
loop_
_atom_site_label
_atom_site_type_symbol
_atom_site_fract_x
_atom_site_fract_y
_atom_site_fract_z
V1    V   0.09983  0.06250  0.43652
V2    V   0.09983  0.43750  0.56348
V3    V   0.40017  0.06250  0.93652
V4    V   0.40017  0.43750  0.06348
V5    V   0.59983  0.56250  0.93652
V6    V   0.59983  0.93750  0.06348
V7    V   0.90017  0.56250  0.43652
V8    V   0.90017  0.93750  0.56348
EC1    EC   0.00019  0.59898  0.63241
EC2    EC   0.00019  0.90102  0.36759
EC3    EC   0.49981  0.59898  0.13241
EC4    EC   0.49981  0.90102  0.86759
EC5    EC   0.50019  0.09898  0.13241
EC6    EC   0.50019  0.40102  0.86759
EC7    EC   0.99981  0.09898  0.63241
EC8    EC   0.99981  0.40102  0.36759
E1    E   0.00000  0.00000  0.50000
E2    E   0.00000  0.50000  0.50000
E3    E   0.04982  0.23176  0.40206
E4    E   0.04982  0.26824  0.59794
E5    E   0.05001  0.51824  0.71554
E6    E   0.05001  0.98176  0.28446
E7    E   0.25000  0.06250  0.00000
E8    E   0.25000  0.06250  0.50000
E9    E   0.25000  0.43750  0.00000
E10   E   0.25000  0.43750  0.50000
E11   E   0.44999  0.51824  0.21554
E12   E   0.44999  0.98176  0.78446
E13   E   0.45018  0.23176  0.90206
E14   E   0.45018  0.26824  0.09794
E15   E   0.50000  0.00000  0.00000
E16   E   0.50000  0.50000  0.00000
E17   E   0.54982  0.73176  0.90206
E18   E   0.54982  0.76824  0.09794
E19   E   0.55001  0.01824  0.21554
E20   E   0.55001  0.48176  0.78446
E21   E   0.75000  0.56250  0.00000
E22   E   0.75000  0.56250  0.50000
E23   E   0.75000  0.93750  0.00000
E24   E   0.75000  0.93750  0.50000
E25   E   0.94999  0.01824  0.71554
E26   E   0.94999  0.48176  0.28446
E27   E   0.95018  0.73176  0.40206
E28   E   0.95018  0.76824  0.59794
loop_
