data_nnd_Cmcm  hall_number: 298, V_con: 3, EC_con: 3
_audit_creation_date              2025-03-05
_audit_creation_method            'MOFbuilder_1.0'
_symmetry_space_group_name_H-M    'P1'
_symmetry_Int_Tables_number       1
_symmetry_cell_setting            triclinic
loop_
_symmetry_equiv_pos_as_xyz
  x,y,z
_cell_length_a                    53.7632
_cell_length_b                    42.58
_cell_length_c                    31.8244
_cell_angle_alpha                 90.0
_cell_angle_beta                  90.0
_cell_angle_gamma                 90.0
loop_
_atom_site_label
_atom_site_type_symbol
_atom_site_fract_x
_atom_site_fract_y
_atom_site_fract_z
V1    V   0.09300  0.50000  0.00000
V2    V   0.09300  0.50000  0.50000
V3    V   0.40700  0.00000  0.00000
V4    V   0.40700  0.00000  0.50000
V5    V   0.59300  0.00000  0.00000
V6    V   0.59300  0.00000  0.50000
V7    V   0.90700  0.50000  0.00000
V8    V   0.90700  0.50000  0.50000
EC1    EC   0.20394  0.32474  0.09289
EC2    EC   0.20394  0.32474  0.40711
EC3    EC   0.20394  0.67526  0.59289
EC4    EC   0.20394  0.67526  0.90711
EC5    EC   0.29606  0.17526  0.59289
EC6    EC   0.29606  0.17526  0.90711
EC7    EC   0.29606  0.82474  0.09289
EC8    EC   0.29606  0.82474  0.40711
EC9    EC   0.70394  0.17526  0.59289
EC10   EC   0.70394  0.17526  0.90711
EC11   EC   0.70394  0.82474  0.09289
EC12   EC   0.70394  0.82474  0.40711
EC13   EC   0.79606  0.32474  0.09289
EC14   EC   0.79606  0.32474  0.40711
EC15   EC   0.79606  0.67526  0.59289
EC16   EC   0.79606  0.67526  0.90711
E1    E   0.00000  0.50000  0.00000
E2    E   0.00000  0.50000  0.50000
E3    E   0.14847  0.41237  0.04644
E4    E   0.14847  0.41237  0.45356
E5    E   0.14847  0.58763  0.54644
E6    E   0.14847  0.58763  0.95356
E7    E   0.20394  0.32474  0.25000
E8    E   0.20394  0.67526  0.75000
E9    E   0.25000  0.25000  0.00000
E10   E   0.25000  0.25000  0.50000
E11   E   0.25000  0.75000  0.00000
E12   E   0.25000  0.75000  0.50000
E13   E   0.29606  0.17526  0.75000
E14   E   0.29606  0.82474  0.25000
E15   E   0.35153  0.08763  0.54644
E16   E   0.35153  0.08763  0.95356
E17   E   0.35153  0.91237  0.04644
E18   E   0.35153  0.91237  0.45356
E19   E   0.50000  0.00000  0.00000
E20   E   0.50000  0.00000  0.50000
E21   E   0.64847  0.08763  0.54644
E22   E   0.64847  0.08763  0.95356
E23   E   0.64847  0.91237  0.04644
E24   E   0.64847  0.91237  0.45356
E25   E   0.70394  0.17526  0.75000
E26   E   0.70394  0.82474  0.25000
E27   E   0.75000  0.25000  0.00000
E28   E   0.75000  0.25000  0.50000
E29   E   0.75000  0.75000  0.00000
E30   E   0.75000  0.75000  0.50000
E31   E   0.79606  0.32474  0.25000
E32   E   0.79606  0.67526  0.75000
E33   E   0.85153  0.41237  0.04644
E34   E   0.85153  0.41237  0.45356
E35   E   0.85153  0.58763  0.54644
E36   E   0.85153  0.58763  0.95356
loop_
