data_noc_P6422  hall_number: 475, V_con: 3, EC_con: 3
_audit_creation_date              2025-03-05
_audit_creation_method            'MOFbuilder_1.0'
_symmetry_space_group_name_H-M    'P1'
_symmetry_Int_Tables_number       1
_symmetry_cell_setting            triclinic
loop_
_symmetry_equiv_pos_as_xyz
  x,y,z
_cell_length_a                    47.1057
_cell_length_b                    47.1057
_cell_length_c                    39.070100000000004
_cell_angle_alpha                 90.0
_cell_angle_beta                  90.0
_cell_angle_gamma                 120.0
loop_
_atom_site_label
_atom_site_type_symbol
_atom_site_fract_x
_atom_site_fract_y
_atom_site_fract_z
V1    V   0.09515  0.34751  0.41400
V2    V   0.09515  0.74764  0.25267
V3    V   0.25236  0.34751  0.58600
V4    V   0.25236  0.90485  0.08067
V5    V   0.34751  0.09515  0.91933
V6    V   0.34751  0.25236  0.74733
V7    V   0.65249  0.74764  0.74733
V8    V   0.65249  0.90485  0.91933
V9    V   0.74764  0.09515  0.08067
V10   V   0.74764  0.65249  0.58600
V11   V   0.90485  0.25236  0.25267
V12   V   0.90485  0.65249  0.41400
EC1    EC   0.12257  0.56128  0.33333
EC2    EC   0.12257  0.56129  0.33333
EC3    EC   0.43871  0.56128  0.66667
EC4    EC   0.43871  0.87743  0.00000
EC5    EC   0.43872  0.56129  0.66667
EC6    EC   0.43872  0.87743  0.00000
EC7    EC   0.56128  0.12257  0.00000
EC8    EC   0.56128  0.43871  0.66667
EC9    EC   0.56129  0.12257  0.00000
EC10   EC   0.56129  0.43872  0.66667
EC11   EC   0.87743  0.43871  0.33333
EC12   EC   0.87743  0.43872  0.33333
E1    E   0.00000  0.29994  0.33333
E2    E   0.00000  0.29994  0.33334
E3    E   0.00000  0.50000  0.33333
E4    E   0.00000  0.70006  0.33333
E5    E   0.00000  0.70006  0.33334
E6    E   0.10886  0.45440  0.37367
E7    E   0.10886  0.65446  0.29299
E8    E   0.17375  0.34751  0.50000
E9    E   0.17375  0.82624  0.16667
E10   E   0.17376  0.34751  0.50000
E11   E   0.17376  0.82625  0.16667
E12   E   0.29994  0.00000  0.00000
E13   E   0.29994  0.00000  1.00000
E14   E   0.29994  0.29994  0.66666
E15   E   0.29994  0.29994  0.66667
E16   E   0.34554  0.45440  0.62633
E17   E   0.34554  0.89114  0.04034
E18   E   0.34751  0.17375  0.83333
E19   E   0.34751  0.17376  0.83333
E20   E   0.45440  0.10886  0.95966
E21   E   0.45440  0.34554  0.70701
E22   E   0.50000  0.00000  0.00000
E23   E   0.50000  0.50000  0.66667
E24   E   0.54560  0.65446  0.70701
E25   E   0.54560  0.89114  0.95966
E26   E   0.65249  0.82624  0.83333
E27   E   0.65249  0.82625  0.83333
E28   E   0.65446  0.10886  0.04034
E29   E   0.65446  0.54560  0.62633
E30   E   0.70006  0.00000  0.00000
E31   E   0.70006  0.00000  1.00000
E32   E   0.70006  0.70006  0.66666
E33   E   0.70006  0.70006  0.66667
E34   E   0.82624  0.17375  0.16667
E35   E   0.82624  0.65249  0.50000
E36   E   0.82625  0.17376  0.16667
E37   E   0.82625  0.65249  0.50000
E38   E   0.89114  0.34554  0.29299
E39   E   0.89114  0.54560  0.37367
loop_
