data_noh_Pa-3  hall_number: 501, V_con: 3, EC_con: 3
_audit_creation_date              2025-03-05
_audit_creation_method            'MOFbuilder_1.0'
_symmetry_space_group_name_H-M    'P1'
_symmetry_Int_Tables_number       1
_symmetry_cell_setting            triclinic
loop_
_symmetry_equiv_pos_as_xyz
  x,y,z
_cell_length_a                    46.0162
_cell_length_b                    46.0162
_cell_length_c                    46.0162
_cell_angle_alpha                 90.0
_cell_angle_beta                  90.0
_cell_angle_gamma                 90.0
loop_
_atom_site_label
_atom_site_type_symbol
_atom_site_fract_x
_atom_site_fract_y
_atom_site_fract_z
V1    V   0.19035  0.69035  0.80965
V2    V   0.19035  0.80965  0.30965
V3    V   0.30965  0.19035  0.80965
V4    V   0.30965  0.30965  0.30965
V5    V   0.69035  0.69035  0.69035
V6    V   0.69035  0.80965  0.19035
V7    V   0.80965  0.19035  0.69035
V8    V   0.80965  0.30965  0.19035
EC1    EC   0.07114  0.63614  0.63623
EC2    EC   0.07114  0.86386  0.13623
EC3    EC   0.13614  0.63623  0.42886
EC4    EC   0.13614  0.86377  0.92886
EC5    EC   0.13623  0.07114  0.86386
EC6    EC   0.13623  0.42886  0.36386
EC7    EC   0.36377  0.57114  0.86386
EC8    EC   0.36377  0.92886  0.36386
EC9    EC   0.36386  0.13623  0.42886
EC10   EC   0.36386  0.36377  0.92886
EC11   EC   0.42886  0.13614  0.63623
EC12   EC   0.42886  0.36386  0.13623
EC13   EC   0.57114  0.63614  0.86377
EC14   EC   0.57114  0.86386  0.36377
EC15   EC   0.63614  0.63623  0.07114
EC16   EC   0.63614  0.86377  0.57114
EC17   EC   0.63623  0.07114  0.63614
EC18   EC   0.63623  0.42886  0.13614
EC19   EC   0.86377  0.57114  0.63614
EC20   EC   0.86377  0.92886  0.13614
EC21   EC   0.86386  0.13623  0.07114
EC22   EC   0.86386  0.36377  0.57114
EC23   EC   0.92886  0.13614  0.86377
EC24   EC   0.92886  0.36386  0.36377
E1    E   0.03254  0.10364  0.86381
E2    E   0.03254  0.39636  0.36381
E3    E   0.10364  0.63619  0.53254
E4    E   0.10364  0.86381  0.03254
E5    E   0.13075  0.66325  0.72294
E6    E   0.13075  0.83675  0.22294
E7    E   0.13619  0.53254  0.39636
E8    E   0.13619  0.96746  0.89636
E9    E   0.16325  0.72294  0.36925
E10   E   0.16325  0.77706  0.86925
E11   E   0.22294  0.13075  0.83675
E12   E   0.22294  0.36925  0.33675
E13   E   0.27706  0.63075  0.83675
E14   E   0.27706  0.86925  0.33675
E15   E   0.33675  0.22294  0.36925
E16   E   0.33675  0.27706  0.86925
E17   E   0.36381  0.03254  0.39636
E18   E   0.36381  0.46746  0.89636
E19   E   0.36925  0.16325  0.72294
E20   E   0.36925  0.33675  0.22294
E21   E   0.39636  0.13619  0.53254
E22   E   0.39636  0.36381  0.03254
E23   E   0.46746  0.60364  0.86381
E24   E   0.46746  0.89636  0.36381
E25   E   0.53254  0.10364  0.63619
E26   E   0.53254  0.39636  0.13619
E27   E   0.60364  0.63619  0.96746
E28   E   0.60364  0.86381  0.46746
E29   E   0.63075  0.66325  0.77706
E30   E   0.63075  0.83675  0.27706
E31   E   0.63619  0.53254  0.10364
E32   E   0.63619  0.96746  0.60364
E33   E   0.66325  0.72294  0.13075
E34   E   0.66325  0.77706  0.63075
E35   E   0.72294  0.13075  0.66325
E36   E   0.72294  0.36925  0.16325
E37   E   0.77706  0.63075  0.66325
E38   E   0.77706  0.86925  0.16325
E39   E   0.83675  0.22294  0.13075
E40   E   0.83675  0.27706  0.63075
E41   E   0.86381  0.03254  0.10364
E42   E   0.86381  0.46746  0.60364
E43   E   0.86925  0.16325  0.77706
E44   E   0.86925  0.33675  0.27706
E45   E   0.89636  0.13619  0.96746
E46   E   0.89636  0.36381  0.46746
E47   E   0.96746  0.60364  0.63619
E48   E   0.96746  0.89636  0.13619
loop_
