data_nok_Cccm  hall_number: 313, V_con: 5, EC_con: 5
_audit_creation_date              2025-03-05
_audit_creation_method            'MOFbuilder_1.0'
_symmetry_space_group_name_H-M    'P1'
_symmetry_Int_Tables_number       1
_symmetry_cell_setting            triclinic
loop_
_symmetry_equiv_pos_as_xyz
  x,y,z
_cell_length_a                    39.7035
_cell_length_b                    27.2245
_cell_length_c                    37.301899999999996
_cell_angle_alpha                 90.0
_cell_angle_beta                  90.0
_cell_angle_gamma                 90.0
loop_
_atom_site_label
_atom_site_type_symbol
_atom_site_fract_x
_atom_site_fract_y
_atom_site_fract_z
V1    V   0.09690  0.11729  0.00000
V2    V   0.09690  0.88271  0.50000
V3    V   0.40310  0.38271  0.00000
V4    V   0.40310  0.61729  0.50000
V5    V   0.59690  0.38271  0.50000
V6    V   0.59690  0.61729  0.00000
V7    V   0.90310  0.11729  0.50000
V8    V   0.90310  0.88271  0.00000
EC1    EC   0.18566  0.40788  0.13404
EC2    EC   0.18566  0.40788  0.86596
EC3    EC   0.18566  0.59212  0.36596
EC4    EC   0.18566  0.59212  0.63404
EC5    EC   0.31434  0.09212  0.13404
EC6    EC   0.31434  0.09212  0.86596
EC7    EC   0.31434  0.90788  0.36596
EC8    EC   0.31434  0.90788  0.63404
EC9    EC   0.68566  0.09212  0.36596
EC10   EC   0.68566  0.09212  0.63404
EC11   EC   0.68566  0.90788  0.13404
EC12   EC   0.68566  0.90788  0.86596
EC13   EC   0.81434  0.40788  0.36596
EC14   EC   0.81434  0.40788  0.63404
EC15   EC   0.81434  0.59212  0.13404
EC16   EC   0.81434  0.59212  0.86596
E1    E   0.00000  0.00000  0.00000
E2    E   0.00000  0.00000  0.50000
E3    E   0.14128  0.26259  0.06702
E4    E   0.14128  0.26259  0.93298
E5    E   0.14128  0.73741  0.43298
E6    E   0.14128  0.73741  0.56702
E7    E   0.18566  0.40788  0.00000
E8    E   0.18566  0.50000  0.25000
E9    E   0.18566  0.50000  0.75000
E10   E   0.18566  0.59212  0.50000
E11   E   0.20562  0.10471  0.06702
E12   E   0.20562  0.10471  0.93298
E13   E   0.20562  0.89529  0.43298
E14   E   0.20562  0.89529  0.56702
E15   E   0.25000  0.25000  0.13404
E16   E   0.25000  0.25000  0.86596
E17   E   0.25000  0.75000  0.36596
E18   E   0.25000  0.75000  0.63404
E19   E   0.29438  0.39529  0.06702
E20   E   0.29438  0.39529  0.93298
E21   E   0.29438  0.60471  0.43298
E22   E   0.29438  0.60471  0.56702
E23   E   0.31434  0.00000  0.25000
E24   E   0.31434  0.00000  0.75000
E25   E   0.31434  0.09212  0.00000
E26   E   0.31434  0.90788  0.50000
E27   E   0.35872  0.23741  0.06702
E28   E   0.35872  0.23741  0.93298
E29   E   0.35872  0.76259  0.43298
E30   E   0.35872  0.76259  0.56702
E31   E   0.50000  0.50000  0.00000
E32   E   0.50000  0.50000  0.50000
E33   E   0.64128  0.23741  0.43298
E34   E   0.64128  0.23741  0.56702
E35   E   0.64128  0.76259  0.06702
E36   E   0.64128  0.76259  0.93298
E37   E   0.68566  0.00000  0.25000
E38   E   0.68566  0.00000  0.75000
E39   E   0.68566  0.09212  0.50000
E40   E   0.68566  0.90788  0.00000
E41   E   0.70562  0.39529  0.43298
E42   E   0.70562  0.39529  0.56702
E43   E   0.70562  0.60471  0.06702
E44   E   0.70562  0.60471  0.93298
E45   E   0.75000  0.25000  0.36596
E46   E   0.75000  0.25000  0.63404
E47   E   0.75000  0.75000  0.13404
E48   E   0.75000  0.75000  0.86596
E49   E   0.79438  0.10471  0.43298
E50   E   0.79438  0.10471  0.56702
E51   E   0.79438  0.89529  0.06702
E52   E   0.79438  0.89529  0.93298
E53   E   0.81434  0.40788  0.50000
E54   E   0.81434  0.50000  0.25000
E55   E   0.81434  0.50000  0.75000
E56   E   0.81434  0.59212  0.00000
E57   E   0.85872  0.26259  0.43298
E58   E   0.85872  0.26259  0.56702
E59   E   0.85872  0.73741  0.06702
E60   E   0.85872  0.73741  0.93298
loop_
