data_nom_P6122  hall_number: 472, V_con: 4, EC_con: 4
_audit_creation_date              2025-03-05
_audit_creation_method            'MOFbuilder_1.0'
_symmetry_space_group_name_H-M    'P1'
_symmetry_Int_Tables_number       1
_symmetry_cell_setting            triclinic
loop_
_symmetry_equiv_pos_as_xyz
  x,y,z
_cell_length_a                    29.212600000000002
_cell_length_b                    29.212600000000002
_cell_length_c                    31.4159
_cell_angle_alpha                 90.0
_cell_angle_beta                  90.0
_cell_angle_gamma                 120.0
loop_
_atom_site_label
_atom_site_type_symbol
_atom_site_fract_x
_atom_site_fract_y
_atom_site_fract_z
V1    V   0.00000  0.45768  0.83333
V2    V   0.00000  0.45768  0.83334
V3    V   0.00000  0.54232  0.33333
V4    V   0.00000  0.54232  0.33334
V5    V   0.45768  0.00000  0.50000
V6    V   0.45768  0.00000  0.50000
V7    V   0.45768  0.45768  0.66666
V8    V   0.45768  0.45768  0.66667
V9    V   0.54232  0.00000  0.00000
V10   V   0.54232  0.00000  1.00000
V11   V   0.54232  0.54232  0.16666
V12   V   0.54232  0.54232  0.16667
EC1    EC   0.23974  0.61987  0.58333
EC2    EC   0.23974  0.61987  0.58334
EC3    EC   0.38013  0.61987  0.91667
EC4    EC   0.38013  0.76026  0.25000
EC5    EC   0.38013  0.61987  0.91666
EC6    EC   0.38013  0.76026  0.25000
EC7    EC   0.61987  0.23974  0.75000
EC8    EC   0.61987  0.38013  0.41666
EC9    EC   0.61987  0.23974  0.75000
EC10   EC   0.61987  0.38013  0.41667
EC11   EC   0.76026  0.38013  0.08334
EC12   EC   0.76026  0.38013  0.08333
E1    E   0.11987  0.53877  0.70834
E2    E   0.11987  0.58110  0.45833
E3    E   0.19006  0.53877  0.87500
E4    E   0.19006  0.65129  0.29167
E5    E   0.34871  0.53877  0.62500
E6    E   0.34871  0.80994  0.54166
E7    E   0.41890  0.53877  0.79166
E8    E   0.41890  0.88013  0.37500
E9    E   0.46123  0.58110  0.04167
E10   E   0.46123  0.88013  0.12500
E11   E   0.46123  0.65129  0.20833
E12   E   0.46123  0.80994  0.95834
E13   E   0.53877  0.19006  0.45834
E14   E   0.53877  0.34871  0.70833
E15   E   0.53877  0.11987  0.62500
E16   E   0.53877  0.41890  0.54167
E17   E   0.58110  0.11987  0.87500
E18   E   0.58110  0.46123  0.29166
E19   E   0.65129  0.19006  0.04166
E20   E   0.65129  0.46123  0.12500
E21   E   0.80994  0.34871  0.79167
E22   E   0.80994  0.46123  0.37500
E23   E   0.88013  0.41890  0.95833
E24   E   0.88013  0.46123  0.20834
loop_
