data_noo_P4/mnc  hall_number: 407, V_con: 5
_audit_creation_date              2025-03-05
_audit_creation_method            'MOFbuilder_1.0'
_symmetry_space_group_name_H-M    'P1'
_symmetry_Int_Tables_number       1
_symmetry_cell_setting            triclinic
loop_
_symmetry_equiv_pos_as_xyz
  x,y,z
_cell_length_a                    23.2059
_cell_length_b                    23.2059
_cell_length_c                    17.9942
_cell_angle_alpha                 90.0
_cell_angle_beta                  90.0
_cell_angle_gamma                 90.0
loop_
_atom_site_label
_atom_site_type_symbol
_atom_site_fract_x
_atom_site_fract_y
_atom_site_fract_z
V1    V   0.07057  0.70358  0.50000
V2    V   0.20358  0.57057  0.00000
V3    V   0.29642  0.07057  0.50000
V4    V   0.42943  0.20358  0.00000
V5    V   0.57057  0.79642  0.00000
V6    V   0.70358  0.92943  0.50000
V7    V   0.79642  0.42943  0.00000
V8    V   0.92943  0.29642  0.50000
E1    E   0.00000  0.50000  0.00000
E2    E   0.00000  0.50000  0.50000
E3    E   0.11293  0.18350  0.50000
E4    E   0.13707  0.63707  0.25000
E5    E   0.13707  0.63707  0.75000
E6    E   0.13707  0.63707  0.25000
E7    E   0.13707  0.63707  0.75000
E8    E   0.18350  0.88707  0.50000
E9    E   0.31650  0.38707  0.00000
E10   E   0.36293  0.13707  0.25000
E11   E   0.36293  0.13707  0.75000
E12   E   0.36293  0.13707  0.25000
E13   E   0.36293  0.13707  0.75000
E14   E   0.38707  0.68350  0.00000
E15   E   0.50000  0.00000  0.00000
E16   E   0.50000  0.00000  0.50000
E17   E   0.61293  0.31650  0.00000
E18   E   0.63707  0.86293  0.25000
E19   E   0.63707  0.86293  0.75000
E20   E   0.68350  0.61293  0.00000
E21   E   0.81650  0.11293  0.50000
E22   E   0.86293  0.36293  0.25000
E23   E   0.86293  0.36293  0.75000
E24   E   0.88707  0.81650  0.50000
loop_
