data_nox_Imma  hall_number: 343, V_con: 4, EC_con: 3
_audit_creation_date              2025-03-05
_audit_creation_method            'MOFbuilder_1.0'
_symmetry_space_group_name_H-M    'P1'
_symmetry_Int_Tables_number       1
_symmetry_cell_setting            triclinic
loop_
_symmetry_equiv_pos_as_xyz
  x,y,z
_cell_length_a                    41.686899999999994
_cell_length_b                    37.9506
_cell_length_c                    37.8663
_cell_angle_alpha                 90.0
_cell_angle_beta                  90.0
_cell_angle_gamma                 90.0
loop_
_atom_site_label
_atom_site_type_symbol
_atom_site_fract_x
_atom_site_fract_y
_atom_site_fract_z
V1    V   0.25000  0.25000  0.25000
V2    V   0.25000  0.75000  0.75000
V3    V   0.75000  0.25000  0.25000
V4    V   0.75000  0.75000  0.75000
EC1    EC   0.11994  0.09315  0.09338
EC2    EC   0.11994  0.40685  0.09338
EC3    EC   0.11994  0.59315  0.90662
EC4    EC   0.11994  0.90685  0.90662
EC5    EC   0.38006  0.09315  0.40662
EC6    EC   0.38006  0.40685  0.40662
EC7    EC   0.38006  0.59315  0.59338
EC8    EC   0.38006  0.90685  0.59338
EC9    EC   0.61994  0.09315  0.40662
EC10   EC   0.61994  0.40685  0.40662
EC11   EC   0.61994  0.59315  0.59338
EC12   EC   0.61994  0.90685  0.59338
EC13   EC   0.88006  0.09315  0.09338
EC14   EC   0.88006  0.40685  0.09338
EC15   EC   0.88006  0.59315  0.90662
EC16   EC   0.88006  0.90685  0.90662
E1    E   0.00000  0.09315  0.09338
E2    E   0.00000  0.40685  0.09338
E3    E   0.00000  0.59315  0.90662
E4    E   0.00000  0.90685  0.90662
E5    E   0.11994  0.00000  0.00000
E6    E   0.11994  0.50000  0.00000
E7    E   0.18497  0.17157  0.17169
E8    E   0.18497  0.32843  0.17169
E9    E   0.18497  0.67157  0.82831
E10   E   0.18497  0.82843  0.82831
E11   E   0.31503  0.17157  0.32831
E12   E   0.31503  0.32843  0.32831
E13   E   0.31503  0.67157  0.67169
E14   E   0.31503  0.82843  0.67169
E15   E   0.38006  0.00000  0.50000
E16   E   0.38006  0.50000  0.50000
E17   E   0.50000  0.09315  0.40662
E18   E   0.50000  0.40685  0.40662
E19   E   0.50000  0.59315  0.59338
E20   E   0.50000  0.90685  0.59338
E21   E   0.61994  0.00000  0.50000
E22   E   0.61994  0.50000  0.50000
E23   E   0.68497  0.17157  0.32831
E24   E   0.68497  0.32843  0.32831
E25   E   0.68497  0.67157  0.67169
E26   E   0.68497  0.82843  0.67169
E27   E   0.81503  0.17157  0.17169
E28   E   0.81503  0.32843  0.17169
E29   E   0.81503  0.67157  0.82831
E30   E   0.81503  0.82843  0.82831
E31   E   0.88006  0.00000  0.00000
E32   E   0.88006  0.50000  0.00000
loop_
