data_noy_Cmcm  hall_number: 298, V_con: 5
_audit_creation_date              2025-03-05
_audit_creation_method            'MOFbuilder_1.0'
_symmetry_space_group_name_H-M    'P1'
_symmetry_Int_Tables_number       1
_symmetry_cell_setting            triclinic
loop_
_symmetry_equiv_pos_as_xyz
  x,y,z
_cell_length_a                    29.848
_cell_length_b                    26.4041
_cell_length_c                    13.184899999999999
_cell_angle_alpha                 90.0
_cell_angle_beta                  90.0
_cell_angle_gamma                 90.0
loop_
_atom_site_label
_atom_site_type_symbol
_atom_site_fract_x
_atom_site_fract_y
_atom_site_fract_z
V1    V   0.16752  0.14239  0.75000
V2    V   0.16752  0.85761  0.25000
V3    V   0.33248  0.35761  0.25000
V4    V   0.33248  0.64239  0.75000
V5    V   0.66752  0.35761  0.25000
V6    V   0.66752  0.64239  0.75000
V7    V   0.83248  0.14239  0.75000
V8    V   0.83248  0.85761  0.25000
E1    E   0.00000  0.14239  0.75000
E2    E   0.00000  0.85761  0.25000
E3    E   0.16752  0.00000  0.00000
E4    E   0.16752  0.00000  0.50000
E5    E   0.25000  0.25000  0.00000
E6    E   0.25000  0.25000  0.50000
E7    E   0.25000  0.75000  0.00000
E8    E   0.25000  0.75000  0.50000
E9    E   0.33248  0.50000  0.00000
E10   E   0.33248  0.50000  0.50000
E11   E   0.50000  0.35761  0.25000
E12   E   0.50000  0.64239  0.75000
E13   E   0.66752  0.50000  0.00000
E14   E   0.66752  0.50000  0.50000
E15   E   0.75000  0.25000  0.00000
E16   E   0.75000  0.25000  0.50000
E17   E   0.75000  0.75000  0.00000
E18   E   0.75000  0.75000  0.50000
E19   E   0.83248  0.00000  0.00000
E20   E   0.83248  0.00000  0.50000
loop_
