data_npo-a_P63/mmc  hall_number: 488, V_con: 4, EC_con: 4
_audit_creation_date              2025-03-05
_audit_creation_method            'MOFbuilder_1.0'
_symmetry_space_group_name_H-M    'P1'
_symmetry_Int_Tables_number       1
_symmetry_cell_setting            triclinic
loop_
_symmetry_equiv_pos_as_xyz
  x,y,z
_cell_length_a                    66.1237
_cell_length_b                    66.1237
_cell_length_c                    34.8223
_cell_angle_alpha                 90.0
_cell_angle_beta                  90.0
_cell_angle_gamma                 120.0
loop_
_atom_site_label
_atom_site_type_symbol
_atom_site_fract_x
_atom_site_fract_y
_atom_site_fract_z
V1    V   0.05862  0.52931  0.10641
V2    V   0.05862  0.52931  0.39359
V3    V   0.05862  0.52931  0.10641
V4    V   0.05862  0.52931  0.39359
V5    V   0.47069  0.52931  0.10641
V6    V   0.47069  0.52931  0.39359
V7    V   0.47069  0.94138  0.10641
V8    V   0.47069  0.94138  0.39359
V9    V   0.47069  0.52931  0.10641
V10   V   0.47069  0.52931  0.39359
V11   V   0.47069  0.94138  0.10641
V12   V   0.47069  0.94138  0.39359
V13   V   0.52931  0.05862  0.60641
V14   V   0.52931  0.05862  0.89359
V15   V   0.52931  0.47069  0.60641
V16   V   0.52931  0.47069  0.89359
V17   V   0.52931  0.05862  0.60641
V18   V   0.52931  0.05862  0.89359
V19   V   0.52931  0.47069  0.60641
V20   V   0.52931  0.47069  0.89359
V21   V   0.94138  0.47069  0.60641
V22   V   0.94138  0.47069  0.89359
V23   V   0.94138  0.47069  0.60641
V24   V   0.94138  0.47069  0.89359
EC1    EC   0.18210  0.51543  0.25000
EC2    EC   0.18210  0.66667  0.25000
EC3    EC   0.33333  0.51543  0.25000
EC4    EC   0.33333  0.81790  0.25000
EC5    EC   0.48457  0.66667  0.25000
EC6    EC   0.48457  0.81790  0.25000
EC7    EC   0.51543  0.18210  0.75000
EC8    EC   0.51543  0.33333  0.75000
EC9    EC   0.66667  0.18210  0.75000
EC10   EC   0.66667  0.48457  0.75000
EC11   EC   0.81790  0.33333  0.75000
EC12   EC   0.81790  0.48457  0.75000
E1    E   0.00000  0.50000  0.00000
E2    E   0.00000  0.50000  0.50000
E3    E   0.05862  0.52931  0.25000
E4    E   0.05862  0.52931  0.25000
E5    E   0.12036  0.52237  0.17821
E6    E   0.12036  0.52237  0.32179
E7    E   0.12036  0.59799  0.17821
E8    E   0.12036  0.59799  0.32179
E9    E   0.18210  0.59105  0.25000
E10   E   0.18210  0.59105  0.25000
E11   E   0.25771  0.51543  0.25000
E12   E   0.25771  0.74228  0.25000
E13   E   0.25772  0.51543  0.25000
E14   E   0.25772  0.74229  0.25000
E15   E   0.40201  0.52237  0.17821
E16   E   0.40201  0.52237  0.32179
E17   E   0.40201  0.87964  0.17821
E18   E   0.40201  0.87964  0.32179
E19   E   0.40895  0.59105  0.25000
E20   E   0.40895  0.81790  0.25000
E21   E   0.40895  0.59105  0.25000
E22   E   0.40895  0.81790  0.25000
E23   E   0.47069  0.52931  0.25000
E24   E   0.47069  0.94138  0.25000
E25   E   0.47069  0.52931  0.25000
E26   E   0.47069  0.94138  0.25000
E27   E   0.47763  0.59799  0.17821
E28   E   0.47763  0.59799  0.32179
E29   E   0.47763  0.87964  0.17821
E30   E   0.47763  0.87964  0.32179
E31   E   0.48457  0.74228  0.25000
E32   E   0.48457  0.74229  0.25000
E33   E   0.50000  0.00000  0.00000
E34   E   0.50000  0.00000  0.50000
E35   E   0.50000  0.50000  0.00000
E36   E   0.50000  0.50000  0.50000
E37   E   0.51543  0.25771  0.75000
E38   E   0.51543  0.25772  0.75000
E39   E   0.52237  0.12036  0.67821
E40   E   0.52237  0.12036  0.82179
E41   E   0.52237  0.40201  0.67821
E42   E   0.52237  0.40201  0.82179
E43   E   0.52931  0.05862  0.75000
E44   E   0.52931  0.47069  0.75000
E45   E   0.52931  0.05862  0.75000
E46   E   0.52931  0.47069  0.75000
E47   E   0.59105  0.18210  0.75000
E48   E   0.59105  0.40895  0.75000
E49   E   0.59105  0.18210  0.75000
E50   E   0.59105  0.40895  0.75000
E51   E   0.59799  0.12036  0.67821
E52   E   0.59799  0.12036  0.82179
E53   E   0.59799  0.47763  0.67821
E54   E   0.59799  0.47763  0.82179
E55   E   0.74228  0.25771  0.75000
E56   E   0.74228  0.48457  0.75000
E57   E   0.74229  0.25772  0.75000
E58   E   0.74229  0.48457  0.75000
E59   E   0.81790  0.40895  0.75000
E60   E   0.81790  0.40895  0.75000
E61   E   0.87964  0.40201  0.67821
E62   E   0.87964  0.40201  0.82179
E63   E   0.87964  0.47763  0.67821
E64   E   0.87964  0.47763  0.82179
E65   E   0.94138  0.47069  0.75000
E66   E   0.94138  0.47069  0.75000
loop_
