data_nsp_P6122  hall_number: 472, V_con: 8
_audit_creation_date              2025-03-05
_audit_creation_method            'MOFbuilder_1.0'
_symmetry_space_group_name_H-M    'P1'
_symmetry_Int_Tables_number       1
_symmetry_cell_setting            triclinic
loop_
_symmetry_equiv_pos_as_xyz
  x,y,z
_cell_length_a                    18.731
_cell_length_b                    18.731
_cell_length_c                    38.3435
_cell_angle_alpha                 90.0
_cell_angle_beta                  90.0
_cell_angle_gamma                 120.0
loop_
_atom_site_label
_atom_site_type_symbol
_atom_site_fract_x
_atom_site_fract_y
_atom_site_fract_z
V1    V   0.06185  0.43821  0.46132
V2    V   0.06185  0.62364  0.70535
V3    V   0.37636  0.43821  0.03868
V4    V   0.37636  0.93815  0.12799
V5    V   0.43821  0.06185  0.87201
V6    V   0.43821  0.37636  0.29465
V7    V   0.56179  0.62364  0.79465
V8    V   0.56179  0.93815  0.37201
V9    V   0.62364  0.06185  0.62799
V10   V   0.62364  0.56179  0.53868
V11   V   0.93815  0.37636  0.20535
V12   V   0.93815  0.56179  0.96132
E1    E   0.00000  0.40729  0.33333
E2    E   0.00000  0.40729  0.33334
E3    E   0.00000  0.59271  0.83333
E4    E   0.00000  0.59271  0.83334
E5    E   0.06184  0.53092  0.58333
E6    E   0.06184  0.53092  0.58334
E7    E   0.15726  0.50000  0.00000
E8    E   0.15726  0.65726  0.16667
E9    E   0.15726  0.40729  0.12202
E10   E   0.15726  0.74997  0.04465
E11   E   0.18818  0.37636  0.25000
E12   E   0.18818  0.37636  0.25000
E13   E   0.18818  0.81182  0.91666
E14   E   0.18818  0.81182  0.91667
E15   E   0.25003  0.40729  0.37798
E16   E   0.25003  0.84274  0.78868
E17   E   0.31182  0.62364  0.75000
E18   E   0.31182  0.68818  0.41666
E19   E   0.31182  0.62364  0.75000
E20   E   0.31182  0.68818  0.41667
E21   E   0.34274  0.50000  0.50000
E22   E   0.34274  0.84274  0.66667
E23   E   0.37636  0.18818  0.08333
E24   E   0.37636  0.18818  0.08334
E25   E   0.37636  0.68818  0.08333
E26   E   0.37636  0.68818  0.08334
E27   E   0.40729  0.00000  0.00000
E28   E   0.40729  0.00000  1.00000
E29   E   0.40729  0.15726  0.21132
E30   E   0.40729  0.25003  0.95535
E31   E   0.40729  0.40729  0.16666
E32   E   0.40729  0.40729  0.16667
E33   E   0.46908  0.53092  0.91667
E34   E   0.46908  0.93816  0.25000
E35   E   0.46908  0.53092  0.91666
E36   E   0.46908  0.93816  0.25000
E37   E   0.50000  0.15726  0.33333
E38   E   0.50000  0.34274  0.83333
E39   E   0.50000  0.65726  0.33333
E40   E   0.50000  0.84274  0.83333
E41   E   0.53092  0.06184  0.75000
E42   E   0.53092  0.46908  0.41666
E43   E   0.53092  0.06184  0.75000
E44   E   0.53092  0.46908  0.41667
E45   E   0.59271  0.00000  0.50000
E46   E   0.59271  0.00000  0.50000
E47   E   0.59271  0.59271  0.66666
E48   E   0.59271  0.59271  0.66667
E49   E   0.59271  0.74997  0.45535
E50   E   0.59271  0.84274  0.71132
E51   E   0.62364  0.31182  0.58333
E52   E   0.62364  0.31182  0.58334
E53   E   0.62364  0.81182  0.58333
E54   E   0.62364  0.81182  0.58334
E55   E   0.65726  0.15726  0.16667
E56   E   0.65726  0.50000  0.00000
E57   E   0.68818  0.31182  0.91667
E58   E   0.68818  0.31182  0.91666
E59   E   0.68818  0.37636  0.25000
E60   E   0.68818  0.37636  0.25000
E61   E   0.74997  0.15726  0.28868
E62   E   0.74997  0.59271  0.87798
E63   E   0.81182  0.18818  0.41666
E64   E   0.81182  0.18818  0.41667
E65   E   0.81182  0.62364  0.75000
E66   E   0.81182  0.62364  0.75000
E67   E   0.84274  0.25003  0.54465
E68   E   0.84274  0.34274  0.66667
E69   E   0.84274  0.50000  0.50000
E70   E   0.84274  0.59271  0.62202
E71   E   0.93816  0.46908  0.08334
E72   E   0.93816  0.46908  0.08333
loop_
