data_nth_I4122  hall_number: 375, V_con: 5, EC_con: 3
_audit_creation_date              2025-03-05
_audit_creation_method            'MOFbuilder_1.0'
_symmetry_space_group_name_H-M    'P1'
_symmetry_Int_Tables_number       1
_symmetry_cell_setting            triclinic
loop_
_symmetry_equiv_pos_as_xyz
  x,y,z
_cell_length_a                    43.300799999999995
_cell_length_b                    43.300799999999995
_cell_length_c                    23.9884
_cell_angle_alpha                 90.0
_cell_angle_beta                  90.0
_cell_angle_gamma                 90.0
loop_
_atom_site_label
_atom_site_type_symbol
_atom_site_fract_x
_atom_site_fract_y
_atom_site_fract_z
V1    V   0.14327  0.67460  0.45456
V2    V   0.14327  0.82540  0.79544
V3    V   0.17460  0.64327  0.04544
V4    V   0.17460  0.85673  0.20456
V5    V   0.32540  0.64327  0.70456
V6    V   0.32540  0.85673  0.54544
V7    V   0.35673  0.67460  0.29544
V8    V   0.35673  0.82540  0.95456
V9    V   0.64327  0.17460  0.95456
V10   V   0.64327  0.32540  0.29544
V11   V   0.67460  0.14327  0.54544
V12   V   0.67460  0.35673  0.70456
V13   V   0.82540  0.14327  0.20456
V14   V   0.82540  0.35673  0.04544
V15   V   0.85673  0.17460  0.79544
V16   V   0.85673  0.32540  0.45456
EC1    EC   0.00000  0.00000  0.29156
EC2    EC   0.00000  0.00000  0.70844
EC3    EC   0.00000  0.50000  0.54156
EC4    EC   0.00000  0.50000  0.95844
EC5    EC   0.50000  0.00000  0.04156
EC6    EC   0.50000  0.00000  0.45844
EC7    EC   0.50000  0.50000  0.20844
EC8    EC   0.50000  0.50000  0.79156
E1    E   0.00000  0.00000  0.50000
E2    E   0.00000  0.50000  0.75000
E3    E   0.07164  0.58730  0.49806
E4    E   0.07164  0.91270  0.75194
E5    E   0.08730  0.57164  0.00194
E6    E   0.08730  0.92836  0.24806
E7    E   0.15893  0.65893  0.25000
E8    E   0.15893  0.84107  0.00000
E9    E   0.15893  0.65893  0.25000
E10   E   0.15893  0.73434  0.92044
E11   E   0.15893  0.76566  0.32956
E12   E   0.15893  0.84107  0.00000
E13   E   0.17460  0.75000  0.12500
E14   E   0.23434  0.65893  0.57956
E15   E   0.23434  0.84107  0.67044
E16   E   0.25000  0.67460  0.37500
E17   E   0.25000  0.82540  0.87500
E18   E   0.26566  0.65893  0.17044
E19   E   0.26566  0.84107  0.07956
E20   E   0.32540  0.75000  0.62500
E21   E   0.34107  0.65893  0.50000
E22   E   0.34107  0.73434  0.82956
E23   E   0.34107  0.76566  0.42044
E24   E   0.34107  0.84107  0.75000
E25   E   0.41270  0.57164  0.74806
E26   E   0.41270  0.92836  0.50194
E27   E   0.42836  0.58730  0.25194
E28   E   0.42836  0.91270  0.99806
E29   E   0.50000  0.00000  0.25000
E30   E   0.50000  0.50000  0.00000
E31   E   0.57164  0.08730  0.99806
E32   E   0.57164  0.41270  0.25194
E33   E   0.58730  0.07164  0.50194
E34   E   0.58730  0.42836  0.74806
E35   E   0.65893  0.15893  0.75000
E36   E   0.65893  0.15893  0.75000
E37   E   0.65893  0.23434  0.42044
E38   E   0.65893  0.26566  0.82956
E39   E   0.65893  0.34107  0.50000
E40   E   0.67460  0.25000  0.62500
E41   E   0.73434  0.15893  0.07956
E42   E   0.73434  0.34107  0.17044
E43   E   0.75000  0.17460  0.87500
E44   E   0.75000  0.32540  0.37500
E45   E   0.76566  0.15893  0.67044
E46   E   0.76566  0.34107  0.57956
E47   E   0.82540  0.25000  0.12500
E48   E   0.84107  0.15893  0.00000
E49   E   0.84107  0.15893  0.00000
E50   E   0.84107  0.23434  0.32956
E51   E   0.84107  0.26566  0.92044
E52   E   0.84107  0.34107  0.25000
E53   E   0.91270  0.07164  0.24806
E54   E   0.91270  0.42836  0.00194
E55   E   0.92836  0.08730  0.75194
E56   E   0.92836  0.41270  0.49806
loop_
