data_nvb_Cmca  hall_number: 304, V_con: 3, EC_con: 3
_audit_creation_date              2025-03-05
_audit_creation_method            'MOFbuilder_1.0'
_symmetry_space_group_name_H-M    'P1'
_symmetry_Int_Tables_number       1
_symmetry_cell_setting            triclinic
loop_
_symmetry_equiv_pos_as_xyz
  x,y,z
_cell_length_a                    39.320499999999996
_cell_length_b                    53.413700000000006
_cell_length_c                    33.0051
_cell_angle_alpha                 90.0
_cell_angle_beta                  90.0
_cell_angle_gamma                 90.0
loop_
_atom_site_label
_atom_site_type_symbol
_atom_site_fract_x
_atom_site_fract_y
_atom_site_fract_z
V1    V   0.00000  0.08873  0.04825
V2    V   0.00000  0.41127  0.54825
V3    V   0.00000  0.58873  0.45175
V4    V   0.00000  0.91127  0.95175
V5    V   0.50000  0.08873  0.45175
V6    V   0.50000  0.41127  0.95175
V7    V   0.50000  0.58873  0.04825
V8    V   0.50000  0.91127  0.54825
EC1    EC   0.20100  0.19685  0.11021
EC2    EC   0.20100  0.30315  0.61021
EC3    EC   0.20100  0.69685  0.38979
EC4    EC   0.20100  0.80315  0.88979
EC5    EC   0.29900  0.19685  0.38979
EC6    EC   0.29900  0.30315  0.88979
EC7    EC   0.29900  0.69685  0.11021
EC8    EC   0.29900  0.80315  0.61021
EC9    EC   0.70100  0.19685  0.38979
EC10   EC   0.70100  0.30315  0.88979
EC11   EC   0.70100  0.69685  0.11021
EC12   EC   0.70100  0.80315  0.61021
EC13   EC   0.79900  0.19685  0.11021
EC14   EC   0.79900  0.30315  0.61021
EC15   EC   0.79900  0.69685  0.38979
EC16   EC   0.79900  0.80315  0.88979
E1    E   0.00000  0.00000  0.00000
E2    E   0.00000  0.50000  0.50000
E3    E   0.10050  0.14279  0.07923
E4    E   0.10050  0.35721  0.57923
E5    E   0.10050  0.64279  0.42077
E6    E   0.10050  0.85721  0.92077
E7    E   0.25000  0.19685  0.25000
E8    E   0.25000  0.25000  0.00000
E9    E   0.25000  0.25000  0.50000
E10   E   0.25000  0.30315  0.75000
E11   E   0.25000  0.69685  0.25000
E12   E   0.25000  0.75000  0.00000
E13   E   0.25000  0.75000  0.50000
E14   E   0.25000  0.80315  0.75000
E15   E   0.39950  0.14279  0.42077
E16   E   0.39950  0.35721  0.92077
E17   E   0.39950  0.64279  0.07923
E18   E   0.39950  0.85721  0.57923
E19   E   0.50000  0.00000  0.50000
E20   E   0.50000  0.50000  0.00000
E21   E   0.60050  0.14279  0.42077
E22   E   0.60050  0.35721  0.92077
E23   E   0.60050  0.64279  0.07923
E24   E   0.60050  0.85721  0.57923
E25   E   0.75000  0.19685  0.25000
E26   E   0.75000  0.25000  0.00000
E27   E   0.75000  0.25000  0.50000
E28   E   0.75000  0.30315  0.75000
E29   E   0.75000  0.69685  0.25000
E30   E   0.75000  0.75000  0.00000
E31   E   0.75000  0.75000  0.50000
E32   E   0.75000  0.80315  0.75000
E33   E   0.89950  0.14279  0.07923
E34   E   0.89950  0.35721  0.57923
E35   E   0.89950  0.64279  0.42077
E36   E   0.89950  0.85721  0.92077
loop_
