data_oab_Cmmm  hall_number: 310, V_con: 7, EC_con: 7
_audit_creation_date              2025-03-05
_audit_creation_method            'MOFbuilder_1.0'
_symmetry_space_group_name_H-M    'P1'
_symmetry_Int_Tables_number       1
_symmetry_cell_setting            triclinic
loop_
_symmetry_equiv_pos_as_xyz
  x,y,z
_cell_length_a                    16.33
_cell_length_b                    43.093500000000006
_cell_length_c                    20.0
_cell_angle_alpha                 90.0
_cell_angle_beta                  90.0
_cell_angle_gamma                 90.0
loop_
_atom_site_label
_atom_site_type_symbol
_atom_site_fract_x
_atom_site_fract_y
_atom_site_fract_z
V1    V   0.00000  0.38397  0.00000
V2    V   0.00000  0.61603  0.00000
V3    V   0.50000  0.11603  0.00000
V4    V   0.50000  0.88397  0.00000
EC1    EC   0.00000  0.18301  0.25000
EC2    EC   0.00000  0.18301  0.75000
EC3    EC   0.00000  0.81699  0.25000
EC4    EC   0.00000  0.81699  0.75000
EC5    EC   0.50000  0.31699  0.25000
EC6    EC   0.50000  0.31699  0.75000
EC7    EC   0.50000  0.68301  0.25000
EC8    EC   0.50000  0.68301  0.75000
E1    E   0.00000  0.18301  0.00000
E2    E   0.00000  0.18301  0.50000
E3    E   0.00000  0.28349  0.12500
E4    E   0.00000  0.28349  0.87500
E5    E   0.00000  0.50000  0.00000
E6    E   0.00000  0.71651  0.12500
E7    E   0.00000  0.71651  0.87500
E8    E   0.00000  0.81699  0.00000
E9    E   0.00000  0.81699  0.50000
E10   E   0.25000  0.14952  0.12500
E11   E   0.25000  0.14952  0.87500
E12   E   0.25000  0.25000  0.25000
E13   E   0.25000  0.25000  0.75000
E14   E   0.25000  0.35048  0.12500
E15   E   0.25000  0.35048  0.87500
E16   E   0.25000  0.64952  0.12500
E17   E   0.25000  0.64952  0.87500
E18   E   0.25000  0.75000  0.25000
E19   E   0.25000  0.75000  0.75000
E20   E   0.25000  0.85048  0.12500
E21   E   0.25000  0.85048  0.87500
E22   E   0.50000  0.00000  0.00000
E23   E   0.50000  0.21651  0.12500
E24   E   0.50000  0.21651  0.87500
E25   E   0.50000  0.31699  0.00000
E26   E   0.50000  0.31699  0.50000
E27   E   0.50000  0.68301  0.00000
E28   E   0.50000  0.68301  0.50000
E29   E   0.50000  0.78349  0.12500
E30   E   0.50000  0.78349  0.87500
E31   E   0.75000  0.14952  0.12500
E32   E   0.75000  0.14952  0.87500
E33   E   0.75000  0.25000  0.25000
E34   E   0.75000  0.25000  0.75000
E35   E   0.75000  0.35048  0.12500
E36   E   0.75000  0.35048  0.87500
E37   E   0.75000  0.64952  0.12500
E38   E   0.75000  0.64952  0.87500
E39   E   0.75000  0.75000  0.25000
E40   E   0.75000  0.75000  0.75000
E41   E   0.75000  0.85048  0.12500
E42   E   0.75000  0.85048  0.87500
loop_
