data_ooa_Pnna  hall_number: 245, V_con: 5
_audit_creation_date              2025-03-05
_audit_creation_method            'MOFbuilder_1.0'
_symmetry_space_group_name_H-M    'P1'
_symmetry_Int_Tables_number       1
_symmetry_cell_setting            triclinic
loop_
_symmetry_equiv_pos_as_xyz
  x,y,z
_cell_length_a                    17.508200000000002
_cell_length_b                    29.306199999999997
_cell_length_c                    24.9602
_cell_angle_alpha                 90.0
_cell_angle_beta                  90.0
_cell_angle_gamma                 90.0
loop_
_atom_site_label
_atom_site_type_symbol
_atom_site_fract_x
_atom_site_fract_y
_atom_site_fract_z
V1    V   0.08689  0.14005  0.09683
V2    V   0.08689  0.35995  0.40317
V3    V   0.41311  0.64005  0.40317
V4    V   0.41311  0.85995  0.09683
V5    V   0.58689  0.14005  0.90317
V6    V   0.58689  0.35995  0.59683
V7    V   0.91311  0.64005  0.59683
V8    V   0.91311  0.85995  0.90317
E1    E   0.00000  0.00000  0.00000
E2    E   0.00000  0.50000  0.50000
E3    E   0.08689  0.25000  0.25000
E4    E   0.16311  0.64005  0.50000
E5    E   0.16311  0.85995  0.00000
E6    E   0.25000  0.00000  0.09683
E7    E   0.25000  0.50000  0.40317
E8    E   0.33689  0.14005  0.00000
E9    E   0.33689  0.35995  0.50000
E10   E   0.41311  0.75000  0.25000
E11   E   0.50000  0.00000  0.00000
E12   E   0.50000  0.50000  0.50000
E13   E   0.58689  0.25000  0.75000
E14   E   0.66311  0.64005  0.50000
E15   E   0.66311  0.85995  0.00000
E16   E   0.75000  0.00000  0.90317
E17   E   0.75000  0.50000  0.59683
E18   E   0.83689  0.14005  0.00000
E19   E   0.83689  0.35995  0.50000
E20   E   0.91311  0.75000  0.75000
loop_
