data_oob_I12/m1  hall_number: 71, V_con: 7
_audit_creation_date              2025-03-05
_audit_creation_method            'MOFbuilder_1.0'
_symmetry_space_group_name_H-M    'P1'
_symmetry_Int_Tables_number       1
_symmetry_cell_setting            triclinic
loop_
_symmetry_equiv_pos_as_xyz
  x,y,z
_cell_length_a                    10.0
_cell_length_b                    19.6808
_cell_length_c                    18.823700000000002
_cell_angle_alpha                 90.0
_cell_angle_beta                  100.2508
_cell_angle_gamma                 90.0
loop_
_atom_site_label
_atom_site_type_symbol
_atom_site_fract_x
_atom_site_fract_y
_atom_site_fract_z
V1    V   0.17170  0.00000  0.23377
V2    V   0.17170  0.00000  0.76623
V3    V   0.32830  0.50000  0.26623
V4    V   0.32830  0.50000  0.73377
V5    V   0.67170  0.50000  0.26623
V6    V   0.67170  0.50000  0.73377
V7    V   0.82830  0.00000  0.23377
V8    V   0.82830  0.00000  0.76623
E1    E   0.00000  0.00000  0.00000
E2    E   0.00000  0.00000  0.50000
E3    E   0.00000  0.50000  0.50000
E4    E   0.17170  0.50000  0.26623
E5    E   0.17170  0.50000  0.73377
E6    E   0.25000  0.25000  0.75000
E7    E   0.25000  0.75000  0.25000
E8    E   0.32830  0.00000  0.23377
E9    E   0.32830  0.00000  0.76623
E10   E   0.50000  0.00000  0.00000
E11   E   0.50000  0.50000  0.00000
E12   E   0.50000  0.50000  0.50000
E13   E   0.67170  0.00000  0.23377
E14   E   0.67170  0.00000  0.76623
E15   E   0.75000  0.25000  0.75000
E16   E   0.75000  0.75000  0.25000
E17   E   0.82830  0.50000  0.26623
E18   E   0.82830  0.50000  0.73377
loop_
