data_ooc_C12/m1  hall_number: 71, V_con: 8
_audit_creation_date              2025-03-05
_audit_creation_method            'MOFbuilder_1.0'
_symmetry_space_group_name_H-M    'P1'
_symmetry_Int_Tables_number       1
_symmetry_cell_setting            triclinic
loop_
_symmetry_equiv_pos_as_xyz
  x,y,z
_cell_length_a                    15.1207
_cell_length_b                    13.1328
_cell_length_c                    18.6424
_cell_angle_alpha                 90.0
_cell_angle_beta                  110.0185
_cell_angle_gamma                 90.0
loop_
_atom_site_label
_atom_site_type_symbol
_atom_site_fract_x
_atom_site_fract_y
_atom_site_fract_z
V1    V   0.12606  0.00000  0.21275
V2    V   0.12606  0.00000  0.78725
V3    V   0.37394  0.50000  0.28725
V4    V   0.37394  0.50000  0.71275
V5    V   0.62606  0.50000  0.28725
V6    V   0.62606  0.50000  0.71275
V7    V   0.87394  0.00000  0.21275
V8    V   0.87394  0.00000  0.78725
E1    E   0.00000  0.00000  0.00000
E2    E   0.00000  0.00000  0.50000
E3    E   0.12394  0.25000  0.71275
E4    E   0.12394  0.75000  0.28725
E5    E   0.25000  0.25000  0.00000
E6    E   0.25000  0.25000  0.50000
E7    E   0.25000  0.75000  0.00000
E8    E   0.25000  0.75000  0.50000
E9    E   0.37606  0.25000  0.78725
E10   E   0.37606  0.75000  0.21275
E11   E   0.50000  0.50000  0.00000
E12   E   0.50000  0.50000  0.50000
E13   E   0.62394  0.25000  0.78725
E14   E   0.62394  0.75000  0.21275
E15   E   0.75000  0.25000  0.00000
E16   E   0.75000  0.25000  0.50000
E17   E   0.75000  0.75000  0.00000
E18   E   0.75000  0.75000  0.50000
E19   E   0.87606  0.25000  0.71275
E20   E   0.87606  0.75000  0.28725
loop_
