data_oof_C12/c1  hall_number: 107, V_con: 8
_audit_creation_date              2025-03-05
_audit_creation_method            'MOFbuilder_1.0'
_symmetry_space_group_name_H-M    'P1'
_symmetry_Int_Tables_number       1
_symmetry_cell_setting            triclinic
loop_
_symmetry_equiv_pos_as_xyz
  x,y,z
_cell_length_a                    10.0
_cell_length_b                    32.7272
_cell_length_c                    10.0001
_cell_angle_alpha                 90.0
_cell_angle_beta                  100.7705
_cell_angle_gamma                 90.0
loop_
_atom_site_label
_atom_site_type_symbol
_atom_site_fract_x
_atom_site_fract_y
_atom_site_fract_z
V1    V   0.00000  0.13231  0.25000
V2    V   0.00000  0.36769  0.75000
V3    V   0.00000  0.63231  0.25000
V4    V   0.00000  0.86769  0.75000
V5    V   0.50000  0.13231  0.75000
V6    V   0.50000  0.36769  0.25000
V7    V   0.50000  0.63231  0.75000
V8    V   0.50000  0.86769  0.25000
E1    E   0.00000  0.00000  0.00000
E2    E   0.00000  0.13231  0.75000
E3    E   0.00000  0.36769  0.25000
E4    E   0.00000  0.50000  0.00000
E5    E   0.00000  0.63231  0.75000
E6    E   0.00000  0.86769  0.25000
E7    E   0.25000  0.25000  0.00000
E8    E   0.25000  0.25000  0.50000
E9    E   0.50000  0.00000  0.50000
E10   E   0.50000  0.13231  0.25000
E11   E   0.50000  0.36769  0.75000
E12   E   0.50000  0.50000  0.50000
E13   E   0.50000  0.63231  0.25000
E14   E   0.50000  0.86769  0.75000
E15   E   0.75000  0.75000  0.00000
E16   E   0.75000  0.75000  0.50000
loop_
