data_osa_Cmcm  hall_number: 298, V_con: 6
_audit_creation_date              2025-03-05
_audit_creation_method            'MOFbuilder_1.0'
_symmetry_space_group_name_H-M    'P1'
_symmetry_Int_Tables_number       1
_symmetry_cell_setting            triclinic
loop_
_symmetry_equiv_pos_as_xyz
  x,y,z
_cell_length_a                    10.0
_cell_length_b                    32.6065
_cell_length_c                    29.0475
_cell_angle_alpha                 90.0
_cell_angle_beta                  90.0
_cell_angle_gamma                 90.0
loop_
_atom_site_label
_atom_site_type_symbol
_atom_site_fract_x
_atom_site_fract_y
_atom_site_fract_z
V1    V   0.00000  0.13676  0.57787
V2    V   0.00000  0.13676  0.92213
V3    V   0.00000  0.86324  0.07787
V4    V   0.00000  0.86324  0.42213
V5    V   0.50000  0.36324  0.07787
V6    V   0.50000  0.36324  0.42213
V7    V   0.50000  0.63676  0.57787
V8    V   0.50000  0.63676  0.92213
E1    E   0.00000  0.00000  0.00000
E2    E   0.00000  0.00000  0.50000
E3    E   0.00000  0.13676  0.75000
E4    E   0.00000  0.36324  0.07787
E5    E   0.00000  0.36324  0.42213
E6    E   0.00000  0.63676  0.57787
E7    E   0.00000  0.63676  0.92213
E8    E   0.00000  0.86324  0.25000
E9    E   0.25000  0.25000  0.00000
E10   E   0.25000  0.25000  0.50000
E11   E   0.25000  0.75000  0.00000
E12   E   0.25000  0.75000  0.50000
E13   E   0.50000  0.13676  0.57787
E14   E   0.50000  0.13676  0.92213
E15   E   0.50000  0.36324  0.25000
E16   E   0.50000  0.50000  0.00000
E17   E   0.50000  0.50000  0.50000
E18   E   0.50000  0.63676  0.75000
E19   E   0.50000  0.86324  0.07787
E20   E   0.50000  0.86324  0.42213
E21   E   0.75000  0.25000  0.00000
E22   E   0.75000  0.25000  0.50000
E23   E   0.75000  0.75000  0.00000
E24   E   0.75000  0.75000  0.50000
loop_
