data_osf_Cmcm  hall_number: 298, V_con: 7
_audit_creation_date              2025-03-05
_audit_creation_method            'MOFbuilder_1.0'
_symmetry_space_group_name_H-M    'P1'
_symmetry_Int_Tables_number       1
_symmetry_cell_setting            triclinic
loop_
_symmetry_equiv_pos_as_xyz
  x,y,z
_cell_length_a                    28.182100000000002
_cell_length_b                    18.2497
_cell_length_c                    16.7302
_cell_angle_alpha                 90.0
_cell_angle_beta                  90.0
_cell_angle_gamma                 90.0
loop_
_atom_site_label
_atom_site_type_symbol
_atom_site_fract_x
_atom_site_fract_y
_atom_site_fract_z
V1    V   0.17742  0.34987  0.75000
V2    V   0.17742  0.65013  0.25000
V3    V   0.32258  0.15013  0.25000
V4    V   0.32258  0.84987  0.75000
V5    V   0.67742  0.15013  0.25000
V6    V   0.67742  0.84987  0.75000
V7    V   0.82258  0.34987  0.75000
V8    V   0.82258  0.65013  0.25000
E1    E   0.00000  0.34987  0.75000
E2    E   0.00000  0.65013  0.25000
E3    E   0.17742  0.50000  0.00000
E4    E   0.17742  0.50000  0.50000
E5    E   0.25000  0.09987  0.75000
E6    E   0.25000  0.25000  0.00000
E7    E   0.25000  0.25000  0.50000
E8    E   0.25000  0.40013  0.25000
E9    E   0.25000  0.59987  0.75000
E10   E   0.25000  0.75000  0.00000
E11   E   0.25000  0.75000  0.50000
E12   E   0.25000  0.90013  0.25000
E13   E   0.32258  0.00000  0.00000
E14   E   0.32258  0.00000  0.50000
E15   E   0.50000  0.15013  0.25000
E16   E   0.50000  0.84987  0.75000
E17   E   0.67742  0.00000  0.00000
E18   E   0.67742  0.00000  0.50000
E19   E   0.75000  0.09987  0.75000
E20   E   0.75000  0.25000  0.00000
E21   E   0.75000  0.25000  0.50000
E22   E   0.75000  0.40013  0.25000
E23   E   0.75000  0.59987  0.75000
E24   E   0.75000  0.75000  0.00000
E25   E   0.75000  0.75000  0.50000
E26   E   0.75000  0.90013  0.25000
E27   E   0.82258  0.50000  0.00000
E28   E   0.82258  0.50000  0.50000
loop_
