data_pcl_Cmcm  hall_number: 298, V_con: 4
_audit_creation_date              2025-03-05
_audit_creation_method            'MOFbuilder_1.0'
_symmetry_space_group_name_H-M    'P1'
_symmetry_Int_Tables_number       1
_symmetry_cell_setting            triclinic
loop_
_symmetry_equiv_pos_as_xyz
  x,y,z
_cell_length_a                    32.6402
_cell_length_b                    31.2541
_cell_length_c                    28.3291
_cell_angle_alpha                 90.0
_cell_angle_beta                  90.0
_cell_angle_gamma                 90.0
loop_
_atom_site_label
_atom_site_type_symbol
_atom_site_fract_x
_atom_site_fract_y
_atom_site_fract_z
V1    V   0.15319  0.35455  0.07350
V2    V   0.15319  0.35455  0.42650
V3    V   0.15319  0.64545  0.57350
V4    V   0.15319  0.64545  0.92650
V5    V   0.34681  0.14545  0.57350
V6    V   0.34681  0.14545  0.92650
V7    V   0.34681  0.85455  0.07350
V8    V   0.34681  0.85455  0.42650
V9    V   0.65319  0.14545  0.57350
V10   V   0.65319  0.14545  0.92650
V11   V   0.65319  0.85455  0.07350
V12   V   0.65319  0.85455  0.42650
V13   V   0.84681  0.35455  0.07350
V14   V   0.84681  0.35455  0.42650
V15   V   0.84681  0.64545  0.57350
V16   V   0.84681  0.64545  0.92650
E1    E   0.00000  0.35455  0.07350
E2    E   0.00000  0.35455  0.42650
E3    E   0.00000  0.64545  0.57350
E4    E   0.00000  0.64545  0.92650
E5    E   0.15319  0.35455  0.25000
E6    E   0.15319  0.50000  0.00000
E7    E   0.15319  0.50000  0.50000
E8    E   0.15319  0.64545  0.75000
E9    E   0.25000  0.25000  0.00000
E10   E   0.25000  0.25000  0.50000
E11   E   0.25000  0.75000  0.00000
E12   E   0.25000  0.75000  0.50000
E13   E   0.34681  0.00000  0.00000
E14   E   0.34681  0.00000  0.50000
E15   E   0.34681  0.14545  0.75000
E16   E   0.34681  0.85455  0.25000
E17   E   0.50000  0.14545  0.57350
E18   E   0.50000  0.14545  0.92650
E19   E   0.50000  0.85455  0.07350
E20   E   0.50000  0.85455  0.42650
E21   E   0.65319  0.00000  0.00000
E22   E   0.65319  0.00000  0.50000
E23   E   0.65319  0.14545  0.75000
E24   E   0.65319  0.85455  0.25000
E25   E   0.75000  0.25000  0.00000
E26   E   0.75000  0.25000  0.50000
E27   E   0.75000  0.75000  0.00000
E28   E   0.75000  0.75000  0.50000
E29   E   0.84681  0.35455  0.25000
E30   E   0.84681  0.50000  0.00000
E31   E   0.84681  0.50000  0.50000
E32   E   0.84681  0.64545  0.75000
loop_
