data_pem_Ia-3d  hall_number: 530, V_con: 4
_audit_creation_date              2025-03-05
_audit_creation_method            'MOFbuilder_1.0'
_symmetry_space_group_name_H-M    'P1'
_symmetry_Int_Tables_number       1
_symmetry_cell_setting            triclinic
loop_
_symmetry_equiv_pos_as_xyz
  x,y,z
_cell_length_a                    28.065
_cell_length_b                    28.065
_cell_length_c                    28.065
_cell_angle_alpha                 90.0
_cell_angle_beta                  90.0
_cell_angle_gamma                 90.0
loop_
_atom_site_label
_atom_site_type_symbol
_atom_site_fract_x
_atom_site_fract_y
_atom_site_fract_z
V1    V   0.10286  0.10286  0.10286
V2    V   0.10286  0.39714  0.60286
V3    V   0.10286  0.60286  0.89714
V4    V   0.10286  0.89714  0.39714
V5    V   0.14714  0.14714  0.14714
V6    V   0.14714  0.35286  0.64714
V7    V   0.14714  0.64714  0.85286
V8    V   0.14714  0.85286  0.35286
V9    V   0.35286  0.14714  0.85286
V10   V   0.35286  0.35286  0.35286
V11   V   0.35286  0.64714  0.14714
V12   V   0.35286  0.85286  0.64714
V13   V   0.39714  0.10286  0.89714
V14   V   0.39714  0.39714  0.39714
V15   V   0.39714  0.60286  0.10286
V16   V   0.39714  0.89714  0.60286
V17   V   0.60286  0.10286  0.39714
V18   V   0.60286  0.39714  0.89714
V19   V   0.60286  0.60286  0.60286
V20   V   0.60286  0.89714  0.10286
V21   V   0.64714  0.14714  0.35286
V22   V   0.64714  0.35286  0.85286
V23   V   0.64714  0.64714  0.64714
V24   V   0.64714  0.85286  0.14714
V25   V   0.85286  0.14714  0.64714
V26   V   0.85286  0.35286  0.14714
V27   V   0.85286  0.64714  0.35286
V28   V   0.85286  0.85286  0.85286
V29   V   0.89714  0.10286  0.60286
V30   V   0.89714  0.39714  0.10286
V31   V   0.89714  0.60286  0.39714
V32   V   0.89714  0.89714  0.89714
E1    E   0.00000  0.00000  0.00000
E2    E   0.00000  0.00000  0.50000
E3    E   0.00000  0.50000  0.00000
E4    E   0.00000  0.50000  0.50000
E5    E   0.02214  0.22786  0.62500
E6    E   0.02214  0.27214  0.12500
E7    E   0.02214  0.72786  0.37500
E8    E   0.02214  0.77214  0.87500
E9    E   0.02214  0.22786  0.62500
E10   E   0.02214  0.27214  0.12500
E11   E   0.02214  0.72786  0.37500
E12   E   0.02214  0.77214  0.87500
E13   E   0.12500  0.02214  0.27214
E14   E   0.12500  0.02214  0.27214
E15   E   0.12500  0.47786  0.77214
E16   E   0.12500  0.52214  0.72786
E17   E   0.12500  0.97786  0.22786
E18   E   0.22786  0.12500  0.97786
E19   E   0.22786  0.37500  0.47786
E20   E   0.22786  0.62500  0.02214
E21   E   0.22786  0.62500  0.02214
E22   E   0.22786  0.87500  0.52214
E23   E   0.25000  0.25000  0.25000
E24   E   0.25000  0.25000  0.75000
E25   E   0.25000  0.75000  0.25000
E26   E   0.25000  0.75000  0.75000
E27   E   0.27214  0.12500  0.02214
E28   E   0.27214  0.12500  0.02214
E29   E   0.27214  0.37500  0.52214
E30   E   0.27214  0.62500  0.97786
E31   E   0.27214  0.87500  0.47786
E32   E   0.37500  0.02214  0.72786
E33   E   0.37500  0.02214  0.72786
E34   E   0.37500  0.47786  0.22786
E35   E   0.37500  0.52214  0.27214
E36   E   0.37500  0.97786  0.77214
E37   E   0.47786  0.22786  0.37500
E38   E   0.47786  0.27214  0.87500
E39   E   0.47786  0.72786  0.62500
E40   E   0.47786  0.77214  0.12500
E41   E   0.50000  0.00000  0.00000
E42   E   0.50000  0.00000  0.50000
E43   E   0.50000  0.50000  0.00000
E44   E   0.50000  0.50000  0.50000
E45   E   0.52214  0.22786  0.87500
E46   E   0.52214  0.27214  0.37500
E47   E   0.52214  0.72786  0.12500
E48   E   0.52214  0.77214  0.62500
E49   E   0.62500  0.02214  0.22786
E50   E   0.62500  0.02214  0.22786
E51   E   0.62500  0.47786  0.72786
E52   E   0.62500  0.52214  0.77214
E53   E   0.62500  0.97786  0.27214
E54   E   0.72786  0.12500  0.52214
E55   E   0.72786  0.37500  0.02214
E56   E   0.72786  0.37500  0.02214
E57   E   0.72786  0.62500  0.47786
E58   E   0.72786  0.87500  0.97786
E59   E   0.75000  0.25000  0.25000
E60   E   0.75000  0.25000  0.75000
E61   E   0.75000  0.75000  0.25000
E62   E   0.75000  0.75000  0.75000
E63   E   0.77214  0.12500  0.47786
E64   E   0.77214  0.37500  0.97786
E65   E   0.77214  0.62500  0.52214
E66   E   0.77214  0.87500  0.02214
E67   E   0.77214  0.87500  0.02214
E68   E   0.87500  0.02214  0.77214
E69   E   0.87500  0.02214  0.77214
E70   E   0.87500  0.47786  0.27214
E71   E   0.87500  0.52214  0.22786
E72   E   0.87500  0.97786  0.72786
E73   E   0.97786  0.22786  0.12500
E74   E   0.97786  0.27214  0.62500
E75   E   0.97786  0.72786  0.87500
E76   E   0.97786  0.77214  0.37500
loop_
