data_pto-a_Pm-3n  hall_number: 520, V_con: 3, EC_con: 3
_audit_creation_date              2025-03-05
_audit_creation_method            'MOFbuilder_1.0'
_symmetry_space_group_name_H-M    'P1'
_symmetry_Int_Tables_number       1
_symmetry_cell_setting            triclinic
loop_
_symmetry_equiv_pos_as_xyz
  x,y,z
_cell_length_a                    64.61420000000001
_cell_length_b                    64.61420000000001
_cell_length_c                    64.61420000000001
_cell_angle_alpha                 90.0
_cell_angle_beta                  90.0
_cell_angle_gamma                 90.0
loop_
_atom_site_label
_atom_site_type_symbol
_atom_site_fract_x
_atom_site_fract_y
_atom_site_fract_z
V1    V   0.18682  0.31318  0.25000
V2    V   0.18682  0.31318  0.75000
V3    V   0.18682  0.68682  0.25000
V4    V   0.18682  0.68682  0.75000
V5    V   0.18682  0.31318  0.25000
V6    V   0.18682  0.31318  0.75000
V7    V   0.18682  0.68682  0.25000
V8    V   0.18682  0.68682  0.75000
V9    V   0.25000  0.18682  0.31318
V10   V   0.25000  0.18682  0.68682
V11   V   0.25000  0.18682  0.31318
V12   V   0.25000  0.18682  0.68682
V13   V   0.25000  0.81318  0.31318
V14   V   0.25000  0.81318  0.68682
V15   V   0.31318  0.25000  0.18682
V16   V   0.31318  0.25000  0.18682
V17   V   0.31318  0.25000  0.81318
V18   V   0.31318  0.75000  0.18682
V19   V   0.31318  0.75000  0.18682
V20   V   0.31318  0.75000  0.81318
V21   V   0.68682  0.25000  0.18682
V22   V   0.68682  0.25000  0.18682
V23   V   0.68682  0.25000  0.81318
V24   V   0.68682  0.75000  0.18682
V25   V   0.68682  0.75000  0.18682
V26   V   0.68682  0.75000  0.81318
V27   V   0.75000  0.18682  0.31318
V28   V   0.75000  0.18682  0.68682
V29   V   0.75000  0.18682  0.31318
V30   V   0.75000  0.18682  0.68682
V31   V   0.75000  0.81318  0.31318
V32   V   0.75000  0.81318  0.68682
V33   V   0.81318  0.31318  0.25000
V34   V   0.81318  0.31318  0.75000
V35   V   0.81318  0.68682  0.25000
V36   V   0.81318  0.68682  0.75000
EC1    EC   0.07738  0.42262  0.25000
EC2    EC   0.07738  0.42262  0.75000
EC3    EC   0.07738  0.57738  0.25000
EC4    EC   0.07738  0.57738  0.75000
EC5    EC   0.25000  0.07738  0.42262
EC6    EC   0.25000  0.07738  0.57738
EC7    EC   0.25000  0.92262  0.42262
EC8    EC   0.25000  0.92262  0.57738
EC9    EC   0.42262  0.25000  0.07738
EC10   EC   0.42262  0.25000  0.92262
EC11   EC   0.42262  0.75000  0.07738
EC12   EC   0.42262  0.75000  0.92262
EC13   EC   0.57738  0.25000  0.07738
EC14   EC   0.57738  0.25000  0.92262
EC15   EC   0.57738  0.75000  0.07738
EC16   EC   0.57738  0.75000  0.92262
EC17   EC   0.75000  0.07738  0.42262
EC18   EC   0.75000  0.07738  0.57738
EC19   EC   0.75000  0.92262  0.42262
EC20   EC   0.75000  0.92262  0.57738
EC21   EC   0.92262  0.42262  0.25000
EC22   EC   0.92262  0.42262  0.75000
EC23   EC   0.92262  0.57738  0.25000
EC24   EC   0.92262  0.57738  0.75000
E1    E   0.00000  0.42262  0.25000
E2    E   0.00000  0.42262  0.75000
E3    E   0.00000  0.57738  0.25000
E4    E   0.00000  0.57738  0.75000
E5    E   0.07738  0.50000  0.25000
E6    E   0.07738  0.50000  0.75000
E7    E   0.13210  0.36790  0.25000
E8    E   0.13210  0.36790  0.75000
E9    E   0.13210  0.63210  0.25000
E10   E   0.13210  0.63210  0.75000
E11   E   0.21841  0.25000  0.28159
E12   E   0.21841  0.25000  0.71841
E13   E   0.21841  0.75000  0.28159
E14   E   0.21841  0.75000  0.71841
E15   E   0.25000  0.00000  0.42262
E16   E   0.25000  0.00000  0.57738
E17   E   0.25000  0.07738  0.50000
E18   E   0.25000  0.13210  0.36790
E19   E   0.25000  0.13210  0.63210
E20   E   0.25000  0.28159  0.21841
E21   E   0.25000  0.28159  0.78159
E22   E   0.25000  0.71841  0.21841
E23   E   0.25000  0.71841  0.78159
E24   E   0.25000  0.86790  0.36790
E25   E   0.25000  0.86790  0.63210
E26   E   0.25000  0.92262  0.50000
E27   E   0.28159  0.21841  0.25000
E28   E   0.28159  0.21841  0.75000
E29   E   0.28159  0.78159  0.25000
E30   E   0.28159  0.78159  0.75000
E31   E   0.36790  0.25000  0.13210
E32   E   0.36790  0.25000  0.86790
E33   E   0.36790  0.75000  0.13210
E34   E   0.36790  0.75000  0.86790
E35   E   0.42262  0.25000  0.00000
E36   E   0.42262  0.75000  0.00000
E37   E   0.50000  0.25000  0.07738
E38   E   0.50000  0.25000  0.92262
E39   E   0.50000  0.75000  0.07738
E40   E   0.50000  0.75000  0.92262
E41   E   0.57738  0.25000  0.00000
E42   E   0.57738  0.75000  0.00000
E43   E   0.63210  0.25000  0.13210
E44   E   0.63210  0.25000  0.86790
E45   E   0.63210  0.75000  0.13210
E46   E   0.63210  0.75000  0.86790
E47   E   0.71841  0.21841  0.25000
E48   E   0.71841  0.21841  0.75000
E49   E   0.71841  0.78159  0.25000
E50   E   0.71841  0.78159  0.75000
E51   E   0.75000  0.00000  0.42262
E52   E   0.75000  0.00000  0.57738
E53   E   0.75000  0.07738  0.50000
E54   E   0.75000  0.13210  0.36790
E55   E   0.75000  0.13210  0.63210
E56   E   0.75000  0.28159  0.21841
E57   E   0.75000  0.28159  0.78159
E58   E   0.75000  0.71841  0.21841
E59   E   0.75000  0.71841  0.78159
E60   E   0.75000  0.86790  0.36790
E61   E   0.75000  0.86790  0.63210
E62   E   0.75000  0.92262  0.50000
E63   E   0.78159  0.25000  0.28159
E64   E   0.78159  0.25000  0.71841
E65   E   0.78159  0.75000  0.28159
E66   E   0.78159  0.75000  0.71841
E67   E   0.86790  0.36790  0.25000
E68   E   0.86790  0.36790  0.75000
E69   E   0.86790  0.63210  0.25000
E70   E   0.86790  0.63210  0.75000
E71   E   0.92262  0.50000  0.25000
E72   E   0.92262  0.50000  0.75000
loop_
