data_pts-f_P42/mmc  hall_number: 412, V_con: 4, EC_con: 3
_audit_creation_date              2025-03-05
_audit_creation_method            'MOFbuilder_1.0'
_symmetry_space_group_name_H-M    'P1'
_symmetry_Int_Tables_number       1
_symmetry_cell_setting            triclinic
loop_
_symmetry_equiv_pos_as_xyz
  x,y,z
_cell_length_a                    26.8338
_cell_length_b                    26.8338
_cell_length_c                    41.598499999999994
_cell_angle_alpha                 90.0
_cell_angle_beta                  90.0
_cell_angle_gamma                 90.0
loop_
_atom_site_label
_atom_site_type_symbol
_atom_site_fract_x
_atom_site_fract_y
_atom_site_fract_z
V1    V   0.00000  0.00000  0.25000
V2    V   0.00000  0.00000  0.75000
EC1    EC   0.00000  0.31367  0.37980
EC2    EC   0.00000  0.31367  0.62020
EC3    EC   0.00000  0.68633  0.37980
EC4    EC   0.00000  0.68633  0.62020
EC5    EC   0.31367  0.00000  0.12020
EC6    EC   0.31367  0.00000  0.87980
EC7    EC   0.68633  0.00000  0.12020
EC8    EC   0.68633  0.00000  0.87980
E1    E   0.00000  0.15683  0.31490
E2    E   0.00000  0.15683  0.68510
E3    E   0.00000  0.31367  0.50000
E4    E   0.00000  0.50000  0.37980
E5    E   0.00000  0.50000  0.62020
E6    E   0.00000  0.68633  0.50000
E7    E   0.00000  0.84317  0.31490
E8    E   0.00000  0.84317  0.68510
E9    E   0.15683  0.00000  0.18510
E10   E   0.15683  0.00000  0.81490
E11   E   0.31367  0.00000  0.00000
E12   E   0.50000  0.00000  0.12020
E13   E   0.50000  0.00000  0.87980
E14   E   0.68633  0.00000  0.00000
E15   E   0.84317  0.00000  0.18510
E16   E   0.84317  0.00000  0.81490
loop_
