data_pts-a_P42/mmc  hall_number: 412, V_con: 4, EC_con: 3
_audit_creation_date              2025-03-05
_audit_creation_method            'MOFbuilder_1.0'
_symmetry_space_group_name_H-M    'P1'
_symmetry_Int_Tables_number       1
_symmetry_cell_setting            triclinic
loop_
_symmetry_equiv_pos_as_xyz
  x,y,z
_cell_length_a                    36.8199
_cell_length_b                    36.8199
_cell_length_c                    55.784099999999995
_cell_angle_alpha                 90.0
_cell_angle_beta                  90.0
_cell_angle_gamma                 90.0
loop_
_atom_site_label
_atom_site_type_symbol
_atom_site_fract_x
_atom_site_fract_y
_atom_site_fract_z
V1    V   0.00000  0.13580  0.31338
V2    V   0.00000  0.13580  0.68662
V3    V   0.00000  0.86420  0.31338
V4    V   0.00000  0.86420  0.68662
V5    V   0.13580  0.00000  0.18662
V6    V   0.13580  0.00000  0.81338
V7    V   0.86420  0.00000  0.18662
V8    V   0.86420  0.00000  0.81338
EC1    EC   0.00000  0.36420  0.41037
EC2    EC   0.00000  0.36420  0.58963
EC3    EC   0.00000  0.63580  0.41037
EC4    EC   0.00000  0.63580  0.58963
EC5    EC   0.36420  0.00000  0.08963
EC6    EC   0.36420  0.00000  0.91037
EC7    EC   0.63580  0.00000  0.08963
EC8    EC   0.63580  0.00000  0.91037
E1    E   0.00000  0.00000  0.18662
E2    E   0.00000  0.00000  0.31338
E3    E   0.00000  0.00000  0.68662
E4    E   0.00000  0.00000  0.81338
E5    E   0.00000  0.25000  0.36187
E6    E   0.00000  0.25000  0.63813
E7    E   0.00000  0.36420  0.50000
E8    E   0.00000  0.50000  0.41037
E9    E   0.00000  0.50000  0.58963
E10   E   0.00000  0.63580  0.50000
E11   E   0.00000  0.75000  0.36187
E12   E   0.00000  0.75000  0.63813
E13   E   0.06790  0.06790  0.25000
E14   E   0.06790  0.06790  0.75000
E15   E   0.06790  0.93210  0.25000
E16   E   0.06790  0.93210  0.75000
E17   E   0.25000  0.00000  0.13813
E18   E   0.25000  0.00000  0.86187
E19   E   0.36420  0.00000  0.00000
E20   E   0.50000  0.00000  0.08963
E21   E   0.50000  0.00000  0.91037
E22   E   0.63580  0.00000  0.00000
E23   E   0.75000  0.00000  0.13813
E24   E   0.75000  0.00000  0.86187
E25   E   0.93210  0.06790  0.25000
E26   E   0.93210  0.06790  0.75000
E27   E   0.93210  0.93210  0.25000
E28   E   0.93210  0.93210  0.75000
loop_
