data_qdl_P6222  hall_number: 474, V_con: 4
_audit_creation_date              2025-03-05
_audit_creation_method            'MOFbuilder_1.0'
_symmetry_space_group_name_H-M    'P1'
_symmetry_Int_Tables_number       1
_symmetry_cell_setting            triclinic
loop_
_symmetry_equiv_pos_as_xyz
  x,y,z
_cell_length_a                    10.0
_cell_length_b                    10.0
_cell_length_c                    59.9998
_cell_angle_alpha                 90.0
_cell_angle_beta                  90.0
_cell_angle_gamma                 120.0
loop_
_atom_site_label
_atom_site_type_symbol
_atom_site_fract_x
_atom_site_fract_y
_atom_site_fract_z
V1    V   0.00000  0.00000  0.08333
V2    V   0.00000  0.00000  0.25000
V3    V   0.00000  0.00000  0.41666
V4    V   0.00000  0.00000  0.58334
V5    V   0.00000  0.00000  0.75000
V6    V   0.00000  0.00000  0.91667
E1    E   0.00000  0.00000  0.00000
E2    E   0.00000  0.00000  0.16666
E3    E   0.00000  0.00000  0.16667
E4    E   0.00000  0.00000  0.33333
E5    E   0.00000  0.00000  0.50000
E6    E   0.00000  0.00000  0.50000
E7    E   0.00000  0.00000  0.66667
E8    E   0.00000  0.00000  0.83333
E9    E   0.00000  0.00000  0.83334
E10   E   0.00000  0.50000  0.08333
E11   E   0.00000  0.50000  0.25000
E12   E   0.50000  0.00000  0.41666
E13   E   0.50000  0.00000  0.58334
E14   E   0.50000  0.50000  0.75000
E15   E   0.50000  0.50000  0.91667
loop_
