data_qrf_Pmna  hall_number: 251, V_con: 7, EC_con: 7
_audit_creation_date              2025-03-05
_audit_creation_method            'MOFbuilder_1.0'
_symmetry_space_group_name_H-M    'P1'
_symmetry_Int_Tables_number       1
_symmetry_cell_setting            triclinic
loop_
_symmetry_equiv_pos_as_xyz
  x,y,z
_cell_length_a                    60.115899999999996
_cell_length_b                    9.8249
_cell_length_c                    34.9249
_cell_angle_alpha                 90.0
_cell_angle_beta                  90.0
_cell_angle_gamma                 90.0
loop_
_atom_site_label
_atom_site_type_symbol
_atom_site_fract_x
_atom_site_fract_y
_atom_site_fract_z
V1    V   0.20880  0.16663  0.12408
V2    V   0.20880  0.83337  0.87592
V3    V   0.29120  0.16663  0.37592
V4    V   0.29120  0.83337  0.62408
V5    V   0.70880  0.16663  0.37592
V6    V   0.70880  0.83337  0.62408
V7    V   0.79120  0.16663  0.12408
V8    V   0.79120  0.83337  0.87592
EC1    EC   0.08396  0.50000  0.00000
EC2    EC   0.41604  0.50000  0.50000
EC3    EC   0.58396  0.50000  0.50000
EC4    EC   0.91604  0.50000  0.00000
E1    E   0.00000  0.50000  0.00000
E2    E   0.08396  0.00000  0.00000
E3    E   0.14638  0.16668  0.93796
E4    E   0.14638  0.33332  0.06204
E5    E   0.14638  0.66668  0.93796
E6    E   0.14638  0.83332  0.06204
E7    E   0.20880  0.00000  0.00000
E8    E   0.20880  0.33337  0.87592
E9    E   0.20880  0.50000  0.00000
E10   E   0.20880  0.66663  0.12408
E11   E   0.25000  0.16663  0.25000
E12   E   0.25000  0.83337  0.75000
E13   E   0.29120  0.00000  0.50000
E14   E   0.29120  0.33337  0.62408
E15   E   0.29120  0.50000  0.50000
E16   E   0.29120  0.66663  0.37592
E17   E   0.35362  0.16668  0.56204
E18   E   0.35362  0.33332  0.43796
E19   E   0.35362  0.66668  0.56204
E20   E   0.35362  0.83332  0.43796
E21   E   0.41604  0.00000  0.50000
E22   E   0.50000  0.50000  0.50000
E23   E   0.58396  0.00000  0.50000
E24   E   0.64638  0.16668  0.56204
E25   E   0.64638  0.33332  0.43796
E26   E   0.64638  0.66668  0.56204
E27   E   0.64638  0.83332  0.43796
E28   E   0.70880  0.00000  0.50000
E29   E   0.70880  0.33337  0.62408
E30   E   0.70880  0.50000  0.50000
E31   E   0.70880  0.66663  0.37592
E32   E   0.75000  0.16663  0.25000
E33   E   0.75000  0.83337  0.75000
E34   E   0.79120  0.00000  0.00000
E35   E   0.79120  0.33337  0.87592
E36   E   0.79120  0.50000  0.00000
E37   E   0.79120  0.66663  0.12408
E38   E   0.85362  0.16668  0.93796
E39   E   0.85362  0.33332  0.06204
E40   E   0.85362  0.66668  0.93796
E41   E   0.85362  0.83332  0.06204
E42   E   0.91604  0.00000  0.00000
loop_
