data_qtz-a_P6222  hall_number: 474, V_con: 4
_audit_creation_date              2025-03-05
_audit_creation_method            'MOFbuilder_1.0'
_symmetry_space_group_name_H-M    'P1'
_symmetry_Int_Tables_number       1
_symmetry_cell_setting            triclinic
loop_
_symmetry_equiv_pos_as_xyz
  x,y,z
_cell_length_a                    35.7072
_cell_length_b                    35.7072
_cell_length_c                    38.408500000000004
_cell_angle_alpha                 90.0
_cell_angle_beta                  90.0
_cell_angle_gamma                 120.0
loop_
_atom_site_label
_atom_site_type_symbol
_atom_site_fract_x
_atom_site_fract_y
_atom_site_fract_z
V1    V   0.11433  0.45815  0.57462
V2    V   0.11433  0.65618  0.75872
V3    V   0.34382  0.45815  0.42538
V4    V   0.34382  0.88567  0.90795
V5    V   0.45815  0.11433  0.09205
V6    V   0.45815  0.34382  0.24128
V7    V   0.54185  0.65618  0.24128
V8    V   0.54185  0.88567  0.09205
V9    V   0.65618  0.11433  0.90795
V10   V   0.65618  0.54185  0.42538
V11   V   0.88567  0.34382  0.75872
V12   V   0.88567  0.54185  0.57462
E1    E   0.00000  0.40098  0.66667
E2    E   0.00000  0.50000  0.57462
E3    E   0.00000  0.50000  0.75872
E4    E   0.00000  0.59902  0.66667
E5    E   0.11433  0.55716  0.66667
E6    E   0.11433  0.55717  0.66667
E7    E   0.22907  0.45815  0.50000
E8    E   0.22907  0.77092  0.83334
E9    E   0.22908  0.45815  0.50000
E10   E   0.22908  0.77093  0.83333
E11   E   0.40098  0.00000  0.00000
E12   E   0.40098  0.40098  0.33333
E13   E   0.44283  0.55716  0.33333
E14   E   0.44283  0.88567  0.00000
E15   E   0.44284  0.55717  0.33333
E16   E   0.44284  0.88567  0.00000
E17   E   0.45815  0.22907  0.16667
E18   E   0.45815  0.22908  0.16666
E19   E   0.50000  0.00000  0.09205
E20   E   0.50000  0.00000  0.90795
E21   E   0.50000  0.50000  0.24128
E22   E   0.50000  0.50000  0.42538
E23   E   0.54185  0.77092  0.16666
E24   E   0.54185  0.77093  0.16667
E25   E   0.55716  0.11433  0.00000
E26   E   0.55716  0.44283  0.33333
E27   E   0.55717  0.11433  0.00000
E28   E   0.55717  0.44284  0.33333
E29   E   0.59902  0.00000  0.00000
E30   E   0.59902  0.59902  0.33333
E31   E   0.77092  0.22907  0.83333
E32   E   0.77092  0.54185  0.50000
E33   E   0.77093  0.22908  0.83334
E34   E   0.77093  0.54185  0.50000
E35   E   0.88567  0.44283  0.66667
E36   E   0.88567  0.44284  0.66667
loop_
