data_rae_Pbcn  hall_number: 284, V_con: 4, EC_con: 4
_audit_creation_date              2025-03-05
_audit_creation_method            'MOFbuilder_1.0'
_symmetry_space_group_name_H-M    'P1'
_symmetry_Int_Tables_number       1
_symmetry_cell_setting            triclinic
loop_
_symmetry_equiv_pos_as_xyz
  x,y,z
_cell_length_a                    30.1858
_cell_length_b                    29.7776
_cell_length_c                    28.563399999999998
_cell_angle_alpha                 90.0
_cell_angle_beta                  90.0
_cell_angle_gamma                 90.0
loop_
_atom_site_label
_atom_site_type_symbol
_atom_site_fract_x
_atom_site_fract_y
_atom_site_fract_z
V1    V   0.15971  0.29615  0.79642
V2    V   0.15971  0.70385  0.29642
V3    V   0.34029  0.20385  0.29642
V4    V   0.34029  0.79615  0.79642
V5    V   0.65971  0.20385  0.20358
V6    V   0.65971  0.79615  0.70358
V7    V   0.84029  0.29615  0.70358
V8    V   0.84029  0.70385  0.20358
EC1    EC   0.13815  0.41235  0.46874
EC2    EC   0.13815  0.58765  0.96874
EC3    EC   0.36185  0.08765  0.96874
EC4    EC   0.36185  0.91235  0.46874
EC5    EC   0.63815  0.08765  0.53126
EC6    EC   0.63815  0.91235  0.03126
EC7    EC   0.86185  0.41235  0.03126
EC8    EC   0.86185  0.58765  0.53126
E1    E   0.00000  0.29615  0.75000
E2    E   0.00000  0.50000  0.00000
E3    E   0.00000  0.50000  0.50000
E4    E   0.00000  0.70385  0.25000
E5    E   0.14893  0.35425  0.63258
E6    E   0.14893  0.44190  0.88258
E7    E   0.14893  0.55810  0.38258
E8    E   0.14893  0.64575  0.13258
E9    E   0.23922  0.30810  0.38258
E10   E   0.23922  0.69190  0.88258
E11   E   0.26078  0.19190  0.88258
E12   E   0.26078  0.80810  0.38258
E13   E   0.35107  0.05810  0.38258
E14   E   0.35107  0.14575  0.13258
E15   E   0.35107  0.85425  0.63258
E16   E   0.35107  0.94190  0.88258
E17   E   0.50000  0.00000  0.00000
E18   E   0.50000  0.00000  0.50000
E19   E   0.50000  0.20385  0.25000
E20   E   0.50000  0.79615  0.75000
E21   E   0.64893  0.05810  0.11742
E22   E   0.64893  0.14575  0.36742
E23   E   0.64893  0.85425  0.86742
E24   E   0.64893  0.94190  0.61742
E25   E   0.73922  0.19190  0.61742
E26   E   0.73922  0.80810  0.11742
E27   E   0.76078  0.30810  0.11742
E28   E   0.76078  0.69190  0.61742
E29   E   0.85107  0.35425  0.86742
E30   E   0.85107  0.44190  0.61742
E31   E   0.85107  0.55810  0.11742
E32   E   0.85107  0.64575  0.36742
loop_
