data_rgd_R3m:H  hall_number: 160, V_con: 12
_audit_creation_date              2025-03-05
_audit_creation_method            'MOFbuilder_1.0'
_symmetry_space_group_name_H-M    'P1'
_symmetry_Int_Tables_number       1
_symmetry_cell_setting            triclinic
loop_
_symmetry_equiv_pos_as_xyz
  x,y,z
_cell_length_a                    27.535400000000003
_cell_length_b                    27.535400000000003
_cell_length_c                    9.586400000000001
_cell_angle_alpha                 90.0
_cell_angle_beta                  90.0
_cell_angle_gamma                 120.0
loop_
_atom_site_label
_atom_site_type_symbol
_atom_site_fract_x
_atom_site_fract_y
_atom_site_fract_z
V1    V   0.21101  0.42202  0.00000
V2    V   0.28899  0.92202  0.00000
V3    V   0.71101  0.92202  0.00000
V4    V   0.78899  0.42202  0.00000
E1    E   0.21101  0.42202  0.50000
E2    E   0.21101  0.60550  0.00000
E3    E   0.22783  0.27217  0.16667
E4    E   0.22783  0.27217  0.66667
E5    E   0.27217  0.77217  0.33333
E6    E   0.27217  0.77217  0.83333
E7    E   0.28899  0.10550  0.00000
E8    E   0.28899  0.92202  0.50000
E9    E   0.71101  0.10550  0.00000
E10   E   0.71101  0.92202  0.50000
E11   E   0.72783  0.77217  0.33333
E12   E   0.72783  0.77217  0.83333
E13   E   0.77217  0.27217  0.16667
E14   E   0.77217  0.27217  0.66667
E15   E   0.78899  0.42202  0.50000
E16   E   0.78899  0.60550  0.00000
loop_
