data_rht-x_Fm-3m  hall_number: 523, V_con: 36, EC_con: 3
_audit_creation_date              2025-03-05
_audit_creation_method            'MOFbuilder_1.0'
_symmetry_space_group_name_H-M    'P1'
_symmetry_Int_Tables_number       1
_symmetry_cell_setting            triclinic
loop_
_symmetry_equiv_pos_as_xyz
  x,y,z
_cell_length_a                    21.3666
_cell_length_b                    21.3666
_cell_length_c                    21.3666
_cell_angle_alpha                 90.0
_cell_angle_beta                  90.0
_cell_angle_gamma                 90.0
loop_
_atom_site_label
_atom_site_type_symbol
_atom_site_fract_x
_atom_site_fract_y
_atom_site_fract_z
V1    V   0.00000  0.00000  0.00000
V2    V   0.00000  0.50000  0.50000
V3    V   0.50000  0.00000  0.50000
V4    V   0.50000  0.50000  0.00000
EC1    EC   0.16669  0.16669  0.33331
EC2    EC   0.16669  0.16669  0.66669
EC3    EC   0.16669  0.33331  0.16669
EC4    EC   0.16669  0.33331  0.83331
EC5    EC   0.16669  0.66669  0.16669
EC6    EC   0.16669  0.66669  0.83331
EC7    EC   0.16669  0.83331  0.33331
EC8    EC   0.16669  0.83331  0.66669
EC9    EC   0.33331  0.16669  0.16669
EC10   EC   0.33331  0.16669  0.83331
EC11   EC   0.33331  0.33331  0.33331
EC12   EC   0.33331  0.33331  0.66669
EC13   EC   0.33331  0.66669  0.33331
EC14   EC   0.33331  0.66669  0.66669
EC15   EC   0.33331  0.83331  0.16669
EC16   EC   0.33331  0.83331  0.83331
EC17   EC   0.66669  0.16669  0.16669
EC18   EC   0.66669  0.16669  0.83331
EC19   EC   0.66669  0.33331  0.33331
EC20   EC   0.66669  0.33331  0.66669
EC21   EC   0.66669  0.66669  0.33331
EC22   EC   0.66669  0.66669  0.66669
EC23   EC   0.66669  0.83331  0.16669
EC24   EC   0.66669  0.83331  0.83331
EC25   EC   0.83331  0.16669  0.33331
EC26   EC   0.83331  0.16669  0.66669
EC27   EC   0.83331  0.33331  0.16669
EC28   EC   0.83331  0.33331  0.83331
EC29   EC   0.83331  0.66669  0.16669
EC30   EC   0.83331  0.66669  0.83331
EC31   EC   0.83331  0.83331  0.33331
EC32   EC   0.83331  0.83331  0.66669
E1    E   0.00000  0.25000  0.25000
E2    E   0.00000  0.25000  0.75000
E3    E   0.00000  0.75000  0.25000
E4    E   0.00000  0.75000  0.75000
E5    E   0.08335  0.08335  0.16665
E6    E   0.08335  0.08335  0.83335
E7    E   0.08335  0.16665  0.08335
E8    E   0.08335  0.16665  0.91665
E9    E   0.08335  0.33335  0.41665
E10   E   0.08335  0.33335  0.58335
E11   E   0.08335  0.41665  0.33335
E12   E   0.08335  0.41665  0.66665
E13   E   0.08335  0.58335  0.33335
E14   E   0.08335  0.58335  0.66665
E15   E   0.08335  0.66665  0.41665
E16   E   0.08335  0.66665  0.58335
E17   E   0.08335  0.83335  0.08335
E18   E   0.08335  0.83335  0.91665
E19   E   0.08335  0.91665  0.16665
E20   E   0.08335  0.91665  0.83335
E21   E   0.16665  0.08335  0.08335
E22   E   0.16665  0.08335  0.91665
E23   E   0.16665  0.41665  0.41665
E24   E   0.16665  0.41665  0.58335
E25   E   0.16665  0.58335  0.41665
E26   E   0.16665  0.58335  0.58335
E27   E   0.16665  0.91665  0.08335
E28   E   0.16665  0.91665  0.91665
E29   E   0.25000  0.00000  0.25000
E30   E   0.25000  0.00000  0.75000
E31   E   0.25000  0.25000  0.00000
E32   E   0.25000  0.25000  0.50000
E33   E   0.25000  0.50000  0.25000
E34   E   0.25000  0.50000  0.75000
E35   E   0.25000  0.75000  0.00000
E36   E   0.25000  0.75000  0.50000
E37   E   0.33335  0.08335  0.41665
E38   E   0.33335  0.08335  0.58335
E39   E   0.33335  0.41665  0.08335
E40   E   0.33335  0.41665  0.91665
E41   E   0.33335  0.58335  0.08335
E42   E   0.33335  0.58335  0.91665
E43   E   0.33335  0.91665  0.41665
E44   E   0.33335  0.91665  0.58335
E45   E   0.41665  0.08335  0.33335
E46   E   0.41665  0.08335  0.66665
E47   E   0.41665  0.16665  0.41665
E48   E   0.41665  0.16665  0.58335
E49   E   0.41665  0.33335  0.08335
E50   E   0.41665  0.33335  0.91665
E51   E   0.41665  0.41665  0.16665
E52   E   0.41665  0.41665  0.83335
E53   E   0.41665  0.58335  0.16665
E54   E   0.41665  0.58335  0.83335
E55   E   0.41665  0.66665  0.08335
E56   E   0.41665  0.66665  0.91665
E57   E   0.41665  0.83335  0.41665
E58   E   0.41665  0.83335  0.58335
E59   E   0.41665  0.91665  0.33335
E60   E   0.41665  0.91665  0.66665
E61   E   0.50000  0.25000  0.25000
E62   E   0.50000  0.25000  0.75000
E63   E   0.50000  0.75000  0.25000
E64   E   0.50000  0.75000  0.75000
E65   E   0.58335  0.08335  0.33335
E66   E   0.58335  0.08335  0.66665
E67   E   0.58335  0.16665  0.41665
E68   E   0.58335  0.16665  0.58335
E69   E   0.58335  0.33335  0.08335
E70   E   0.58335  0.33335  0.91665
E71   E   0.58335  0.41665  0.16665
E72   E   0.58335  0.41665  0.83335
E73   E   0.58335  0.58335  0.16665
E74   E   0.58335  0.58335  0.83335
E75   E   0.58335  0.66665  0.08335
E76   E   0.58335  0.66665  0.91665
E77   E   0.58335  0.83335  0.41665
E78   E   0.58335  0.83335  0.58335
E79   E   0.58335  0.91665  0.33335
E80   E   0.58335  0.91665  0.66665
E81   E   0.66665  0.08335  0.41665
E82   E   0.66665  0.08335  0.58335
E83   E   0.66665  0.41665  0.08335
E84   E   0.66665  0.41665  0.91665
E85   E   0.66665  0.58335  0.08335
E86   E   0.66665  0.58335  0.91665
E87   E   0.66665  0.91665  0.41665
E88   E   0.66665  0.91665  0.58335
E89   E   0.75000  0.00000  0.25000
E90   E   0.75000  0.00000  0.75000
E91   E   0.75000  0.25000  0.00000
E92   E   0.75000  0.25000  0.50000
E93   E   0.75000  0.50000  0.25000
E94   E   0.75000  0.50000  0.75000
E95   E   0.75000  0.75000  0.00000
E96   E   0.75000  0.75000  0.50000
E97   E   0.83335  0.08335  0.08335
E98   E   0.83335  0.08335  0.91665
E99   E   0.83335  0.41665  0.41665
E100  E   0.83335  0.41665  0.58335
E101  E   0.83335  0.58335  0.41665
E102  E   0.83335  0.58335  0.58335
E103  E   0.83335  0.91665  0.08335
E104  E   0.83335  0.91665  0.91665
E105  E   0.91665  0.08335  0.16665
E106  E   0.91665  0.08335  0.83335
E107  E   0.91665  0.16665  0.08335
E108  E   0.91665  0.16665  0.91665
E109  E   0.91665  0.33335  0.41665
E110  E   0.91665  0.33335  0.58335
E111  E   0.91665  0.41665  0.33335
E112  E   0.91665  0.41665  0.66665
E113  E   0.91665  0.58335  0.33335
E114  E   0.91665  0.58335  0.66665
E115  E   0.91665  0.66665  0.41665
E116  E   0.91665  0.66665  0.58335
E117  E   0.91665  0.83335  0.08335
E118  E   0.91665  0.83335  0.91665
E119  E   0.91665  0.91665  0.16665
E120  E   0.91665  0.91665  0.83335
loop_
