data_rna_Imma  hall_number: 343, V_con: 6, EC_con: 3
_audit_creation_date              2025-03-05
_audit_creation_method            'MOFbuilder_1.0'
_symmetry_space_group_name_H-M    'P1'
_symmetry_Int_Tables_number       1
_symmetry_cell_setting            triclinic
loop_
_symmetry_equiv_pos_as_xyz
  x,y,z
_cell_length_a                    38.623
_cell_length_b                    20.0002
_cell_length_c                    38.650600000000004
_cell_angle_alpha                 90.0
_cell_angle_beta                  90.0
_cell_angle_gamma                 90.0
loop_
_atom_site_label
_atom_site_type_symbol
_atom_site_fract_x
_atom_site_fract_y
_atom_site_fract_z
V1    V   0.00000  0.00000  0.00000
V2    V   0.00000  0.50000  0.00000
V3    V   0.50000  0.00000  0.50000
V4    V   0.50000  0.50000  0.50000
EC1    EC   0.15844  0.25000  0.84145
EC2    EC   0.15844  0.75000  0.15855
EC3    EC   0.34156  0.25000  0.65855
EC4    EC   0.34156  0.75000  0.34145
EC5    EC   0.65844  0.25000  0.65855
EC6    EC   0.65844  0.75000  0.34145
EC7    EC   0.84156  0.25000  0.84145
EC8    EC   0.84156  0.75000  0.15855
E1    E   0.00000  0.25000  0.00000
E2    E   0.00000  0.75000  0.00000
E3    E   0.07922  0.12500  0.92073
E4    E   0.07922  0.37500  0.92073
E5    E   0.07922  0.62500  0.07927
E6    E   0.07922  0.87500  0.07927
E7    E   0.25000  0.25000  0.75000
E8    E   0.25000  0.75000  0.25000
E9    E   0.42078  0.12500  0.57927
E10   E   0.42078  0.37500  0.57927
E11   E   0.42078  0.62500  0.42073
E12   E   0.42078  0.87500  0.42073
E13   E   0.50000  0.25000  0.50000
E14   E   0.50000  0.75000  0.50000
E15   E   0.57922  0.12500  0.57927
E16   E   0.57922  0.37500  0.57927
E17   E   0.57922  0.62500  0.42073
E18   E   0.57922  0.87500  0.42073
E19   E   0.75000  0.25000  0.75000
E20   E   0.75000  0.75000  0.25000
E21   E   0.92078  0.12500  0.92073
E22   E   0.92078  0.37500  0.92073
E23   E   0.92078  0.62500  0.07927
E24   E   0.92078  0.87500  0.07927
loop_
