data_sas_I4/mmm  hall_number: 424, V_con: 4, EC_con: 4
_audit_creation_date              2025-03-05
_audit_creation_method            'MOFbuilder_1.0'
_symmetry_space_group_name_H-M    'P1'
_symmetry_Int_Tables_number       1
_symmetry_cell_setting            triclinic
loop_
_symmetry_equiv_pos_as_xyz
  x,y,z
_cell_length_a                    45.6991
_cell_length_b                    45.6991
_cell_length_c                    32.6459
_cell_angle_alpha                 90.0
_cell_angle_beta                  90.0
_cell_angle_gamma                 90.0
loop_
_atom_site_label
_atom_site_type_symbol
_atom_site_fract_x
_atom_site_fract_y
_atom_site_fract_z
V1    V   0.10941  0.26414  0.00000
V2    V   0.10941  0.73586  0.00000
V3    V   0.23586  0.39059  0.50000
V4    V   0.23586  0.60941  0.50000
V5    V   0.26414  0.10941  0.00000
V6    V   0.26414  0.89059  0.00000
V7    V   0.39059  0.23586  0.50000
V8    V   0.39059  0.76414  0.50000
V9    V   0.60941  0.23586  0.50000
V10   V   0.60941  0.76414  0.50000
V11   V   0.73586  0.10941  0.00000
V12   V   0.73586  0.89059  0.00000
V13   V   0.76414  0.39059  0.50000
V14   V   0.76414  0.60941  0.50000
V15   V   0.89059  0.26414  0.00000
V16   V   0.89059  0.73586  0.00000
EC1    EC   0.10941  0.39059  0.25000
EC2    EC   0.10941  0.39059  0.75000
EC3    EC   0.10941  0.60941  0.25000
EC4    EC   0.10941  0.60941  0.75000
EC5    EC   0.10941  0.39059  0.25000
EC6    EC   0.10941  0.39059  0.75000
EC7    EC   0.10941  0.60941  0.25000
EC8    EC   0.10941  0.60941  0.75000
EC9    EC   0.39059  0.10941  0.25000
EC10   EC   0.39059  0.10941  0.75000
EC11   EC   0.39059  0.10941  0.25000
EC12   EC   0.39059  0.10941  0.75000
EC13   EC   0.39059  0.89059  0.25000
EC14   EC   0.39059  0.89059  0.75000
EC15   EC   0.60941  0.10941  0.25000
EC16   EC   0.60941  0.10941  0.75000
EC17   EC   0.60941  0.10941  0.25000
EC18   EC   0.60941  0.10941  0.75000
EC19   EC   0.60941  0.89059  0.25000
EC20   EC   0.60941  0.89059  0.75000
EC21   EC   0.89059  0.39059  0.25000
EC22   EC   0.89059  0.39059  0.75000
EC23   EC   0.89059  0.60941  0.25000
EC24   EC   0.89059  0.60941  0.75000
E1    E   0.00000  0.26414  0.00000
E2    E   0.00000  0.39059  0.25000
E3    E   0.00000  0.39059  0.75000
E4    E   0.00000  0.60941  0.25000
E5    E   0.00000  0.60941  0.75000
E6    E   0.00000  0.73586  0.00000
E7    E   0.10941  0.32737  0.12500
E8    E   0.10941  0.32737  0.87500
E9    E   0.10941  0.50000  0.25000
E10   E   0.10941  0.50000  0.75000
E11   E   0.10941  0.67263  0.12500
E12   E   0.10941  0.67263  0.87500
E13   E   0.17263  0.39059  0.37500
E14   E   0.17263  0.39059  0.62500
E15   E   0.17263  0.60941  0.37500
E16   E   0.17263  0.60941  0.62500
E17   E   0.18678  0.18678  0.00000
E18   E   0.18678  0.81322  0.00000
E19   E   0.23586  0.50000  0.50000
E20   E   0.26414  0.00000  0.00000
E21   E   0.31322  0.31322  0.50000
E22   E   0.31322  0.68678  0.50000
E23   E   0.32737  0.10941  0.12500
E24   E   0.32737  0.10941  0.87500
E25   E   0.32737  0.89059  0.12500
E26   E   0.32737  0.89059  0.87500
E27   E   0.39059  0.00000  0.25000
E28   E   0.39059  0.00000  0.75000
E29   E   0.39059  0.17263  0.37500
E30   E   0.39059  0.17263  0.62500
E31   E   0.39059  0.82737  0.37500
E32   E   0.39059  0.82737  0.62500
E33   E   0.50000  0.10941  0.25000
E34   E   0.50000  0.10941  0.75000
E35   E   0.50000  0.23586  0.50000
E36   E   0.50000  0.76414  0.50000
E37   E   0.50000  0.89059  0.25000
E38   E   0.50000  0.89059  0.75000
E39   E   0.60941  0.00000  0.25000
E40   E   0.60941  0.00000  0.75000
E41   E   0.60941  0.17263  0.37500
E42   E   0.60941  0.17263  0.62500
E43   E   0.60941  0.82737  0.37500
E44   E   0.60941  0.82737  0.62500
E45   E   0.67263  0.10941  0.12500
E46   E   0.67263  0.10941  0.87500
E47   E   0.67263  0.89059  0.12500
E48   E   0.67263  0.89059  0.87500
E49   E   0.68678  0.31322  0.50000
E50   E   0.68678  0.68678  0.50000
E51   E   0.73586  0.00000  0.00000
E52   E   0.76414  0.50000  0.50000
E53   E   0.81322  0.18678  0.00000
E54   E   0.81322  0.81322  0.00000
E55   E   0.82737  0.39059  0.37500
E56   E   0.82737  0.39059  0.62500
E57   E   0.82737  0.60941  0.37500
E58   E   0.82737  0.60941  0.62500
E59   E   0.89059  0.32737  0.12500
E60   E   0.89059  0.32737  0.87500
E61   E   0.89059  0.50000  0.25000
E62   E   0.89059  0.50000  0.75000
E63   E   0.89059  0.67263  0.12500
E64   E   0.89059  0.67263  0.87500
loop_
