data_sca_I4/mmm  hall_number: 424, V_con: 4, EC_con: 4
_audit_creation_date              2025-03-05
_audit_creation_method            'MOFbuilder_1.0'
_symmetry_space_group_name_H-M    'P1'
_symmetry_Int_Tables_number       1
_symmetry_cell_setting            triclinic
loop_
_symmetry_equiv_pos_as_xyz
  x,y,z
_cell_length_a                    43.292500000000004
_cell_length_b                    43.292500000000004
_cell_length_c                    23.0316
_cell_angle_alpha                 90.0
_cell_angle_beta                  90.0
_cell_angle_gamma                 90.0
loop_
_atom_site_label
_atom_site_type_symbol
_atom_site_fract_x
_atom_site_fract_y
_atom_site_fract_z
V1    V   0.00000  0.16333  0.50000
V2    V   0.00000  0.83667  0.50000
V3    V   0.16333  0.00000  0.50000
V4    V   0.33667  0.50000  0.00000
V5    V   0.50000  0.33667  0.00000
V6    V   0.50000  0.66333  0.00000
V7    V   0.66333  0.50000  0.00000
V8    V   0.83667  0.00000  0.50000
EC1    EC   0.00000  0.33856  0.21709
EC2    EC   0.00000  0.33856  0.78291
EC3    EC   0.00000  0.66144  0.21709
EC4    EC   0.00000  0.66144  0.78291
EC5    EC   0.16144  0.50000  0.28291
EC6    EC   0.16144  0.50000  0.71709
EC7    EC   0.33856  0.00000  0.21709
EC8    EC   0.33856  0.00000  0.78291
EC9    EC   0.50000  0.16144  0.28291
EC10   EC   0.50000  0.16144  0.71709
EC11   EC   0.50000  0.83856  0.28291
EC12   EC   0.50000  0.83856  0.71709
EC13   EC   0.66144  0.00000  0.21709
EC14   EC   0.66144  0.00000  0.78291
EC15   EC   0.83856  0.50000  0.28291
EC16   EC   0.83856  0.50000  0.71709
E1    E   0.00000  0.25094  0.35855
E2    E   0.00000  0.25094  0.64145
E3    E   0.00000  0.33856  0.00000
E4    E   0.00000  0.66144  0.00000
E5    E   0.00000  0.74906  0.35855
E6    E   0.00000  0.74906  0.64145
E7    E   0.08072  0.41928  0.25000
E8    E   0.08072  0.41928  0.75000
E9    E   0.08072  0.58072  0.25000
E10   E   0.08072  0.58072  0.75000
E11   E   0.08072  0.41928  0.25000
E12   E   0.08072  0.41928  0.75000
E13   E   0.08072  0.58072  0.25000
E14   E   0.08072  0.58072  0.75000
E15   E   0.08167  0.08167  0.50000
E16   E   0.08167  0.91833  0.50000
E17   E   0.16144  0.50000  0.50000
E18   E   0.24906  0.50000  0.14145
E19   E   0.24906  0.50000  0.85855
E20   E   0.25094  0.00000  0.35855
E21   E   0.25094  0.00000  0.64145
E22   E   0.33856  0.00000  0.00000
E23   E   0.41833  0.41833  0.00000
E24   E   0.41833  0.58167  0.00000
E25   E   0.41928  0.08072  0.25000
E26   E   0.41928  0.08072  0.75000
E27   E   0.41928  0.08072  0.25000
E28   E   0.41928  0.08072  0.75000
E29   E   0.41928  0.91928  0.25000
E30   E   0.41928  0.91928  0.75000
E31   E   0.50000  0.16144  0.50000
E32   E   0.50000  0.24906  0.14145
E33   E   0.50000  0.24906  0.85855
E34   E   0.50000  0.75094  0.14145
E35   E   0.50000  0.75094  0.85855
E36   E   0.50000  0.83856  0.50000
E37   E   0.58072  0.08072  0.25000
E38   E   0.58072  0.08072  0.75000
E39   E   0.58072  0.08072  0.25000
E40   E   0.58072  0.08072  0.75000
E41   E   0.58072  0.91928  0.25000
E42   E   0.58072  0.91928  0.75000
E43   E   0.58167  0.41833  0.00000
E44   E   0.58167  0.58167  0.00000
E45   E   0.66144  0.00000  0.00000
E46   E   0.74906  0.00000  0.35855
E47   E   0.74906  0.00000  0.64145
E48   E   0.75094  0.50000  0.14145
E49   E   0.75094  0.50000  0.85855
E50   E   0.83856  0.50000  0.50000
E51   E   0.91833  0.08167  0.50000
E52   E   0.91833  0.91833  0.50000
E53   E   0.91928  0.41928  0.25000
E54   E   0.91928  0.41928  0.75000
E55   E   0.91928  0.58072  0.25000
E56   E   0.91928  0.58072  0.75000
loop_
