data_sct_Fddd:2  hall_number: 336, V_con: 7, EC_con: 7
_audit_creation_date              2025-03-05
_audit_creation_method            'MOFbuilder_1.0'
_symmetry_space_group_name_H-M    'P1'
_symmetry_Int_Tables_number       1
_symmetry_cell_setting            triclinic
loop_
_symmetry_equiv_pos_as_xyz
  x,y,z
_cell_length_a                    70.55069999999999
_cell_length_b                    16.329800000000002
_cell_length_c                    43.09440000000001
_cell_angle_alpha                 90.0
_cell_angle_beta                  90.0
_cell_angle_gamma                 90.0
loop_
_atom_site_label
_atom_site_type_symbol
_atom_site_fract_x
_atom_site_fract_y
_atom_site_fract_z
V1    V   0.05413  0.12500  0.30801
V2    V   0.05413  0.12500  0.94199
V3    V   0.05413  0.62500  0.44199
V4    V   0.05413  0.62500  0.80801
V5    V   0.19587  0.12500  0.30801
V6    V   0.19587  0.12500  0.94199
V7    V   0.19587  0.62500  0.44199
V8    V   0.19587  0.62500  0.80801
V9    V   0.30413  0.37500  0.05801
V10   V   0.30413  0.37500  0.69199
V11   V   0.30413  0.87500  0.19199
V12   V   0.30413  0.87500  0.55801
V13   V   0.44587  0.37500  0.05801
V14   V   0.44587  0.37500  0.69199
V15   V   0.44587  0.87500  0.19199
V16   V   0.44587  0.87500  0.55801
V17   V   0.55413  0.12500  0.44199
V18   V   0.55413  0.12500  0.80801
V19   V   0.55413  0.62500  0.30801
V20   V   0.55413  0.62500  0.94199
V21   V   0.69587  0.12500  0.44199
V22   V   0.69587  0.12500  0.80801
V23   V   0.69587  0.62500  0.30801
V24   V   0.69587  0.62500  0.94199
V25   V   0.80413  0.37500  0.19199
V26   V   0.80413  0.37500  0.55801
V27   V   0.80413  0.87500  0.05801
V28   V   0.80413  0.87500  0.69199
V29   V   0.94587  0.37500  0.19199
V30   V   0.94587  0.37500  0.55801
V31   V   0.94587  0.87500  0.05801
V32   V   0.94587  0.87500  0.69199
EC1    EC   0.12500  0.12500  0.50897
EC2    EC   0.12500  0.12500  0.74103
EC3    EC   0.12500  0.62500  0.00897
EC4    EC   0.12500  0.62500  0.24103
EC5    EC   0.37500  0.37500  0.25897
EC6    EC   0.37500  0.37500  0.49103
EC7    EC   0.37500  0.87500  0.75897
EC8    EC   0.37500  0.87500  0.99103
EC9    EC   0.62500  0.12500  0.00897
EC10   EC   0.62500  0.12500  0.24103
EC11   EC   0.62500  0.62500  0.50897
EC12   EC   0.62500  0.62500  0.74103
EC13   EC   0.87500  0.37500  0.75897
EC14   EC   0.87500  0.37500  0.99103
EC15   EC   0.87500  0.87500  0.25897
EC16   EC   0.87500  0.87500  0.49103
E1    E   0.00000  0.00000  0.00000
E2    E   0.00000  0.25000  0.25000
E3    E   0.00000  0.50000  0.50000
E4    E   0.00000  0.75000  0.75000
E5    E   0.05413  0.37500  0.37500
E6    E   0.05413  0.37500  0.87500
E7    E   0.05413  0.87500  0.37500
E8    E   0.05413  0.87500  0.87500
E9    E   0.08956  0.12500  0.40849
E10   E   0.08956  0.12500  0.84151
E11   E   0.08956  0.37500  0.27452
E12   E   0.08956  0.37500  0.47548
E13   E   0.08956  0.37500  0.77452
E14   E   0.08956  0.37500  0.97548
E15   E   0.08956  0.62500  0.34151
E16   E   0.08956  0.62500  0.90849
E17   E   0.08956  0.87500  0.27452
E18   E   0.08956  0.87500  0.47548
E19   E   0.08956  0.87500  0.77452
E20   E   0.08956  0.87500  0.97548
E21   E   0.12500  0.12500  0.30801
E22   E   0.12500  0.12500  0.62500
E23   E   0.12500  0.12500  0.94199
E24   E   0.12500  0.62500  0.12500
E25   E   0.12500  0.62500  0.44199
E26   E   0.12500  0.62500  0.80801
E27   E   0.16044  0.12500  0.40849
E28   E   0.16044  0.12500  0.84151
E29   E   0.16044  0.37500  0.27452
E30   E   0.16044  0.37500  0.47548
E31   E   0.16044  0.37500  0.77452
E32   E   0.16044  0.37500  0.97548
E33   E   0.16044  0.62500  0.34151
E34   E   0.16044  0.62500  0.90849
E35   E   0.16044  0.87500  0.27452
E36   E   0.16044  0.87500  0.47548
E37   E   0.16044  0.87500  0.77452
E38   E   0.16044  0.87500  0.97548
E39   E   0.19587  0.37500  0.37500
E40   E   0.19587  0.37500  0.87500
E41   E   0.19587  0.87500  0.37500
E42   E   0.19587  0.87500  0.87500
E43   E   0.25000  0.00000  0.25000
E44   E   0.25000  0.25000  0.00000
E45   E   0.25000  0.50000  0.75000
E46   E   0.25000  0.75000  0.50000
E47   E   0.30413  0.12500  0.12500
E48   E   0.30413  0.12500  0.62500
E49   E   0.30413  0.62500  0.12500
E50   E   0.30413  0.62500  0.62500
E51   E   0.33956  0.12500  0.02452
E52   E   0.33956  0.12500  0.22548
E53   E   0.33956  0.12500  0.52452
E54   E   0.33956  0.12500  0.72548
E55   E   0.33956  0.37500  0.15849
E56   E   0.33956  0.37500  0.59151
E57   E   0.33956  0.62500  0.02452
E58   E   0.33956  0.62500  0.22548
E59   E   0.33956  0.62500  0.52452
E60   E   0.33956  0.62500  0.72548
E61   E   0.33956  0.87500  0.09151
E62   E   0.33956  0.87500  0.65849
E63   E   0.37500  0.37500  0.05801
E64   E   0.37500  0.37500  0.37500
E65   E   0.37500  0.37500  0.69199
E66   E   0.37500  0.87500  0.19199
E67   E   0.37500  0.87500  0.55801
E68   E   0.37500  0.87500  0.87500
E69   E   0.41044  0.12500  0.02452
E70   E   0.41044  0.12500  0.22548
E71   E   0.41044  0.12500  0.52452
E72   E   0.41044  0.12500  0.72548
E73   E   0.41044  0.37500  0.15849
E74   E   0.41044  0.37500  0.59151
E75   E   0.41044  0.62500  0.02452
E76   E   0.41044  0.62500  0.22548
E77   E   0.41044  0.62500  0.52452
E78   E   0.41044  0.62500  0.72548
E79   E   0.41044  0.87500  0.09151
E80   E   0.41044  0.87500  0.65849
E81   E   0.44587  0.12500  0.12500
E82   E   0.44587  0.12500  0.62500
E83   E   0.44587  0.62500  0.12500
E84   E   0.44587  0.62500  0.62500
E85   E   0.50000  0.00000  0.50000
E86   E   0.50000  0.25000  0.75000
E87   E   0.50000  0.50000  0.00000
E88   E   0.50000  0.75000  0.25000
E89   E   0.55413  0.37500  0.37500
E90   E   0.55413  0.37500  0.87500
E91   E   0.55413  0.87500  0.37500
E92   E   0.55413  0.87500  0.87500
E93   E   0.58956  0.12500  0.34151
E94   E   0.58956  0.12500  0.90849
E95   E   0.58956  0.37500  0.27452
E96   E   0.58956  0.37500  0.47548
E97   E   0.58956  0.37500  0.77452
E98   E   0.58956  0.37500  0.97548
E99   E   0.58956  0.62500  0.40849
E100  E   0.58956  0.62500  0.84151
E101  E   0.58956  0.87500  0.27452
E102  E   0.58956  0.87500  0.47548
E103  E   0.58956  0.87500  0.77452
E104  E   0.58956  0.87500  0.97548
E105  E   0.62500  0.12500  0.12500
E106  E   0.62500  0.12500  0.44199
E107  E   0.62500  0.12500  0.80801
E108  E   0.62500  0.62500  0.30801
E109  E   0.62500  0.62500  0.62500
E110  E   0.62500  0.62500  0.94199
E111  E   0.66044  0.12500  0.34151
E112  E   0.66044  0.12500  0.90849
E113  E   0.66044  0.37500  0.27452
E114  E   0.66044  0.37500  0.47548
E115  E   0.66044  0.37500  0.77452
E116  E   0.66044  0.37500  0.97548
E117  E   0.66044  0.62500  0.40849
E118  E   0.66044  0.62500  0.84151
E119  E   0.66044  0.87500  0.27452
E120  E   0.66044  0.87500  0.47548
E121  E   0.66044  0.87500  0.77452
E122  E   0.66044  0.87500  0.97548
E123  E   0.69587  0.37500  0.37500
E124  E   0.69587  0.37500  0.87500
E125  E   0.69587  0.87500  0.37500
E126  E   0.69587  0.87500  0.87500
E127  E   0.75000  0.00000  0.75000
E128  E   0.75000  0.25000  0.50000
E129  E   0.75000  0.50000  0.25000
E130  E   0.75000  0.75000  0.00000
E131  E   0.80413  0.12500  0.12500
E132  E   0.80413  0.12500  0.62500
E133  E   0.80413  0.62500  0.12500
E134  E   0.80413  0.62500  0.62500
E135  E   0.83956  0.12500  0.02452
E136  E   0.83956  0.12500  0.22548
E137  E   0.83956  0.12500  0.52452
E138  E   0.83956  0.12500  0.72548
E139  E   0.83956  0.37500  0.09151
E140  E   0.83956  0.37500  0.65849
E141  E   0.83956  0.62500  0.02452
E142  E   0.83956  0.62500  0.22548
E143  E   0.83956  0.62500  0.52452
E144  E   0.83956  0.62500  0.72548
E145  E   0.83956  0.87500  0.15849
E146  E   0.83956  0.87500  0.59151
E147  E   0.87500  0.37500  0.19199
E148  E   0.87500  0.37500  0.55801
E149  E   0.87500  0.37500  0.87500
E150  E   0.87500  0.87500  0.05801
E151  E   0.87500  0.87500  0.37500
E152  E   0.87500  0.87500  0.69199
E153  E   0.91044  0.12500  0.02452
E154  E   0.91044  0.12500  0.22548
E155  E   0.91044  0.12500  0.52452
E156  E   0.91044  0.12500  0.72548
E157  E   0.91044  0.37500  0.09151
E158  E   0.91044  0.37500  0.65849
E159  E   0.91044  0.62500  0.02452
E160  E   0.91044  0.62500  0.22548
E161  E   0.91044  0.62500  0.52452
E162  E   0.91044  0.62500  0.72548
E163  E   0.91044  0.87500  0.15849
E164  E   0.91044  0.87500  0.59151
E165  E   0.94587  0.12500  0.12500
E166  E   0.94587  0.12500  0.62500
E167  E   0.94587  0.62500  0.12500
E168  E   0.94587  0.62500  0.62500
loop_
