data_she-a_Im-3m  hall_number: 529, V_con: 3, EC_con: 3
_audit_creation_date              2025-03-05
_audit_creation_method            'MOFbuilder_1.0'
_symmetry_space_group_name_H-M    'P1'
_symmetry_Int_Tables_number       1
_symmetry_cell_setting            triclinic
loop_
_symmetry_equiv_pos_as_xyz
  x,y,z
_cell_length_a                    76.5686
_cell_length_b                    76.5686
_cell_length_c                    76.5686
_cell_angle_alpha                 90.0
_cell_angle_beta                  90.0
_cell_angle_gamma                 90.0
loop_
_atom_site_label
_atom_site_type_symbol
_atom_site_fract_x
_atom_site_fract_y
_atom_site_fract_z
V1    V   0.15765  0.25000  0.34235
V2    V   0.15765  0.25000  0.65765
V3    V   0.15765  0.34235  0.25000
V4    V   0.15765  0.34235  0.75000
V5    V   0.15765  0.65765  0.25000
V6    V   0.15765  0.65765  0.75000
V7    V   0.15765  0.75000  0.34235
V8    V   0.15765  0.75000  0.65765
V9    V   0.25000  0.15765  0.34235
V10   V   0.25000  0.15765  0.65765
V11   V   0.25000  0.34235  0.15765
V12   V   0.25000  0.34235  0.84235
V13   V   0.25000  0.65765  0.15765
V14   V   0.25000  0.65765  0.84235
V15   V   0.25000  0.84235  0.34235
V16   V   0.25000  0.84235  0.65765
V17   V   0.34235  0.15765  0.25000
V18   V   0.34235  0.15765  0.75000
V19   V   0.34235  0.25000  0.15765
V20   V   0.34235  0.25000  0.84235
V21   V   0.34235  0.75000  0.15765
V22   V   0.34235  0.75000  0.84235
V23   V   0.34235  0.84235  0.25000
V24   V   0.34235  0.84235  0.75000
V25   V   0.65765  0.15765  0.25000
V26   V   0.65765  0.15765  0.75000
V27   V   0.65765  0.25000  0.15765
V28   V   0.65765  0.25000  0.84235
V29   V   0.65765  0.75000  0.15765
V30   V   0.65765  0.75000  0.84235
V31   V   0.65765  0.84235  0.25000
V32   V   0.65765  0.84235  0.75000
V33   V   0.75000  0.15765  0.34235
V34   V   0.75000  0.15765  0.65765
V35   V   0.75000  0.34235  0.15765
V36   V   0.75000  0.34235  0.84235
V37   V   0.75000  0.65765  0.15765
V38   V   0.75000  0.65765  0.84235
V39   V   0.75000  0.84235  0.34235
V40   V   0.75000  0.84235  0.65765
V41   V   0.84235  0.25000  0.34235
V42   V   0.84235  0.25000  0.65765
V43   V   0.84235  0.34235  0.25000
V44   V   0.84235  0.34235  0.75000
V45   V   0.84235  0.65765  0.25000
V46   V   0.84235  0.65765  0.75000
V47   V   0.84235  0.75000  0.34235
V48   V   0.84235  0.75000  0.65765
EC1    EC   0.06530  0.25000  0.43470
EC2    EC   0.06530  0.25000  0.56530
EC3    EC   0.06530  0.43470  0.25000
EC4    EC   0.06530  0.43470  0.75000
EC5    EC   0.06530  0.56530  0.25000
EC6    EC   0.06530  0.56530  0.75000
EC7    EC   0.06530  0.75000  0.43470
EC8    EC   0.06530  0.75000  0.56530
EC9    EC   0.06530  0.25000  0.43470
EC10   EC   0.06530  0.25000  0.56530
EC11   EC   0.06530  0.43470  0.25000
EC12   EC   0.06530  0.43470  0.75000
EC13   EC   0.06530  0.56530  0.25000
EC14   EC   0.06530  0.56530  0.75000
EC15   EC   0.06530  0.75000  0.43470
EC16   EC   0.06530  0.75000  0.56530
EC17   EC   0.25000  0.06530  0.43470
EC18   EC   0.25000  0.06530  0.56530
EC19   EC   0.25000  0.06530  0.43470
EC20   EC   0.25000  0.06530  0.56530
EC21   EC   0.25000  0.43470  0.06530
EC22   EC   0.25000  0.43470  0.06530
EC23   EC   0.25000  0.43470  0.93470
EC24   EC   0.25000  0.56530  0.06530
EC25   EC   0.25000  0.56530  0.06530
EC26   EC   0.25000  0.56530  0.93470
EC27   EC   0.25000  0.93470  0.43470
EC28   EC   0.25000  0.93470  0.56530
EC29   EC   0.43470  0.06530  0.25000
EC30   EC   0.43470  0.06530  0.75000
EC31   EC   0.43470  0.06530  0.25000
EC32   EC   0.43470  0.06530  0.75000
EC33   EC   0.43470  0.25000  0.06530
EC34   EC   0.43470  0.25000  0.06530
EC35   EC   0.43470  0.25000  0.93470
EC36   EC   0.43470  0.75000  0.06530
EC37   EC   0.43470  0.75000  0.06530
EC38   EC   0.43470  0.75000  0.93470
EC39   EC   0.43470  0.93470  0.25000
EC40   EC   0.43470  0.93470  0.75000
EC41   EC   0.56530  0.06530  0.25000
EC42   EC   0.56530  0.06530  0.75000
EC43   EC   0.56530  0.06530  0.25000
EC44   EC   0.56530  0.06530  0.75000
EC45   EC   0.56530  0.25000  0.06530
EC46   EC   0.56530  0.25000  0.06530
EC47   EC   0.56530  0.25000  0.93470
EC48   EC   0.56530  0.75000  0.06530
EC49   EC   0.56530  0.75000  0.06530
EC50   EC   0.56530  0.75000  0.93470
EC51   EC   0.56530  0.93470  0.25000
EC52   EC   0.56530  0.93470  0.75000
EC53   EC   0.75000  0.06530  0.43470
EC54   EC   0.75000  0.06530  0.56530
EC55   EC   0.75000  0.06530  0.43470
EC56   EC   0.75000  0.06530  0.56530
EC57   EC   0.75000  0.43470  0.06530
EC58   EC   0.75000  0.43470  0.06530
EC59   EC   0.75000  0.43470  0.93470
EC60   EC   0.75000  0.56530  0.06530
EC61   EC   0.75000  0.56530  0.06530
EC62   EC   0.75000  0.56530  0.93470
EC63   EC   0.75000  0.93470  0.43470
EC64   EC   0.75000  0.93470  0.56530
EC65   EC   0.93470  0.25000  0.43470
EC66   EC   0.93470  0.25000  0.56530
EC67   EC   0.93470  0.43470  0.25000
EC68   EC   0.93470  0.43470  0.75000
EC69   EC   0.93470  0.56530  0.25000
EC70   EC   0.93470  0.56530  0.75000
EC71   EC   0.93470  0.75000  0.43470
EC72   EC   0.93470  0.75000  0.56530
E1    E   0.00000  0.25000  0.43470
E2    E   0.00000  0.25000  0.56530
E3    E   0.00000  0.43470  0.25000
E4    E   0.00000  0.43470  0.75000
E5    E   0.00000  0.56530  0.25000
E6    E   0.00000  0.56530  0.75000
E7    E   0.00000  0.75000  0.43470
E8    E   0.00000  0.75000  0.56530
E9    E   0.06530  0.25000  0.50000
E10   E   0.06530  0.50000  0.25000
E11   E   0.06530  0.50000  0.75000
E12   E   0.06530  0.75000  0.50000
E13   E   0.11148  0.25000  0.38852
E14   E   0.11148  0.25000  0.61148
E15   E   0.11148  0.38852  0.25000
E16   E   0.11148  0.38852  0.75000
E17   E   0.11148  0.61148  0.25000
E18   E   0.11148  0.61148  0.75000
E19   E   0.11148  0.75000  0.38852
E20   E   0.11148  0.75000  0.61148
E21   E   0.11148  0.25000  0.38852
E22   E   0.11148  0.25000  0.61148
E23   E   0.11148  0.38852  0.25000
E24   E   0.11148  0.38852  0.75000
E25   E   0.11148  0.61148  0.25000
E26   E   0.11148  0.61148  0.75000
E27   E   0.11148  0.75000  0.38852
E28   E   0.11148  0.75000  0.61148
E29   E   0.15765  0.29617  0.29617
E30   E   0.15765  0.29617  0.70383
E31   E   0.15765  0.70383  0.29617
E32   E   0.15765  0.70383  0.70383
E33   E   0.20383  0.20383  0.34235
E34   E   0.20383  0.20383  0.65765
E35   E   0.20383  0.34235  0.20383
E36   E   0.20383  0.34235  0.79617
E37   E   0.20383  0.65765  0.20383
E38   E   0.20383  0.65765  0.79617
E39   E   0.20383  0.79617  0.34235
E40   E   0.20383  0.79617  0.65765
E41   E   0.25000  0.00000  0.43470
E42   E   0.25000  0.00000  0.56530
E43   E   0.25000  0.06530  0.50000
E44   E   0.25000  0.11148  0.38852
E45   E   0.25000  0.11148  0.61148
E46   E   0.25000  0.11148  0.38852
E47   E   0.25000  0.11148  0.61148
E48   E   0.25000  0.38852  0.11148
E49   E   0.25000  0.38852  0.11148
E50   E   0.25000  0.38852  0.88852
E51   E   0.25000  0.43470  0.00000
E52   E   0.25000  0.50000  0.06530
E53   E   0.25000  0.50000  0.93470
E54   E   0.25000  0.56530  0.00000
E55   E   0.25000  0.61148  0.11148
E56   E   0.25000  0.61148  0.11148
E57   E   0.25000  0.61148  0.88852
E58   E   0.25000  0.88852  0.38852
E59   E   0.25000  0.88852  0.61148
E60   E   0.25000  0.93470  0.50000
E61   E   0.29617  0.15765  0.29617
E62   E   0.29617  0.15765  0.70383
E63   E   0.29617  0.29617  0.15765
E64   E   0.29617  0.29617  0.84235
E65   E   0.29617  0.70383  0.15765
E66   E   0.29617  0.70383  0.84235
E67   E   0.29617  0.84235  0.29617
E68   E   0.29617  0.84235  0.70383
E69   E   0.34235  0.20383  0.20383
E70   E   0.34235  0.20383  0.79617
E71   E   0.34235  0.79617  0.20383
E72   E   0.34235  0.79617  0.79617
E73   E   0.38852  0.11148  0.25000
E74   E   0.38852  0.11148  0.75000
E75   E   0.38852  0.11148  0.25000
E76   E   0.38852  0.11148  0.75000
E77   E   0.38852  0.25000  0.11148
E78   E   0.38852  0.25000  0.11148
E79   E   0.38852  0.25000  0.88852
E80   E   0.38852  0.75000  0.11148
E81   E   0.38852  0.75000  0.11148
E82   E   0.38852  0.75000  0.88852
E83   E   0.38852  0.88852  0.25000
E84   E   0.38852  0.88852  0.75000
E85   E   0.43470  0.00000  0.25000
E86   E   0.43470  0.00000  0.75000
E87   E   0.43470  0.25000  0.00000
E88   E   0.43470  0.75000  0.00000
E89   E   0.50000  0.06530  0.25000
E90   E   0.50000  0.06530  0.75000
E91   E   0.50000  0.25000  0.06530
E92   E   0.50000  0.25000  0.93470
E93   E   0.50000  0.75000  0.06530
E94   E   0.50000  0.75000  0.93470
E95   E   0.50000  0.93470  0.25000
E96   E   0.50000  0.93470  0.75000
E97   E   0.56530  0.00000  0.25000
E98   E   0.56530  0.00000  0.75000
E99   E   0.56530  0.25000  0.00000
E100  E   0.56530  0.75000  0.00000
E101  E   0.61148  0.11148  0.25000
E102  E   0.61148  0.11148  0.75000
E103  E   0.61148  0.11148  0.25000
E104  E   0.61148  0.11148  0.75000
E105  E   0.61148  0.25000  0.11148
E106  E   0.61148  0.25000  0.11148
E107  E   0.61148  0.25000  0.88852
E108  E   0.61148  0.75000  0.11148
E109  E   0.61148  0.75000  0.11148
E110  E   0.61148  0.75000  0.88852
E111  E   0.61148  0.88852  0.25000
E112  E   0.61148  0.88852  0.75000
E113  E   0.65765  0.20383  0.20383
E114  E   0.65765  0.20383  0.79617
E115  E   0.65765  0.79617  0.20383
E116  E   0.65765  0.79617  0.79617
E117  E   0.70383  0.15765  0.29617
E118  E   0.70383  0.15765  0.70383
E119  E   0.70383  0.29617  0.15765
E120  E   0.70383  0.29617  0.84235
E121  E   0.70383  0.70383  0.15765
E122  E   0.70383  0.70383  0.84235
E123  E   0.70383  0.84235  0.29617
E124  E   0.70383  0.84235  0.70383
E125  E   0.75000  0.00000  0.43470
E126  E   0.75000  0.00000  0.56530
E127  E   0.75000  0.06530  0.50000
E128  E   0.75000  0.11148  0.38852
E129  E   0.75000  0.11148  0.61148
E130  E   0.75000  0.11148  0.38852
E131  E   0.75000  0.11148  0.61148
E132  E   0.75000  0.38852  0.11148
E133  E   0.75000  0.38852  0.11148
E134  E   0.75000  0.38852  0.88852
E135  E   0.75000  0.43470  0.00000
E136  E   0.75000  0.50000  0.06530
E137  E   0.75000  0.50000  0.93470
E138  E   0.75000  0.56530  0.00000
E139  E   0.75000  0.61148  0.11148
E140  E   0.75000  0.61148  0.11148
E141  E   0.75000  0.61148  0.88852
E142  E   0.75000  0.88852  0.38852
E143  E   0.75000  0.88852  0.61148
E144  E   0.75000  0.93470  0.50000
E145  E   0.79617  0.20383  0.34235
E146  E   0.79617  0.20383  0.65765
E147  E   0.79617  0.34235  0.20383
E148  E   0.79617  0.34235  0.79617
E149  E   0.79617  0.65765  0.20383
E150  E   0.79617  0.65765  0.79617
E151  E   0.79617  0.79617  0.34235
E152  E   0.79617  0.79617  0.65765
E153  E   0.84235  0.29617  0.29617
E154  E   0.84235  0.29617  0.70383
E155  E   0.84235  0.70383  0.29617
E156  E   0.84235  0.70383  0.70383
E157  E   0.88852  0.25000  0.38852
E158  E   0.88852  0.25000  0.61148
E159  E   0.88852  0.38852  0.25000
E160  E   0.88852  0.38852  0.75000
E161  E   0.88852  0.61148  0.25000
E162  E   0.88852  0.61148  0.75000
E163  E   0.88852  0.75000  0.38852
E164  E   0.88852  0.75000  0.61148
E165  E   0.93470  0.25000  0.50000
E166  E   0.93470  0.50000  0.25000
E167  E   0.93470  0.50000  0.75000
E168  E   0.93470  0.75000  0.50000
loop_
