data_sit_Imm2  hall_number: 215, V_con: 6, EC_con: 3
_audit_creation_date              2025-03-05
_audit_creation_method            'MOFbuilder_1.0'
_symmetry_space_group_name_H-M    'P1'
_symmetry_Int_Tables_number       1
_symmetry_cell_setting            triclinic
loop_
_symmetry_equiv_pos_as_xyz
  x,y,z
_cell_length_a                    14.9284
_cell_length_b                    23.5359
_cell_length_c                    23.57
_cell_angle_alpha                 90.0
_cell_angle_beta                  90.0
_cell_angle_gamma                 90.0
loop_
_atom_site_label
_atom_site_type_symbol
_atom_site_fract_x
_atom_site_fract_y
_atom_site_fract_z
V1    V   0.00000  0.00000  0.30175
V2    V   0.50000  0.50000  0.80175
EC1    EC   0.00000  0.29868  0.00000
EC2    EC   0.00000  0.70132  0.00000
EC3    EC   0.50000  0.20132  0.50000
EC4    EC   0.50000  0.79868  0.50000
E1    E   0.00000  0.14934  0.15087
E2    E   0.00000  0.85066  0.15087
E3    E   0.25000  0.10066  0.40087
E4    E   0.25000  0.39934  0.90087
E5    E   0.25000  0.60066  0.90087
E6    E   0.25000  0.89934  0.40087
E7    E   0.50000  0.35066  0.65087
E8    E   0.50000  0.64934  0.65087
E9    E   0.75000  0.10066  0.40087
E10   E   0.75000  0.39934  0.90087
E11   E   0.75000  0.60066  0.90087
E12   E   0.75000  0.89934  0.40087
loop_
