data_skb_Fmmm  hall_number: 334, V_con: 5
_audit_creation_date              2025-03-05
_audit_creation_method            'MOFbuilder_1.0'
_symmetry_space_group_name_H-M    'P1'
_symmetry_Int_Tables_number       1
_symmetry_cell_setting            triclinic
loop_
_symmetry_equiv_pos_as_xyz
  x,y,z
_cell_length_a                    28.0657
_cell_length_b                    18.3016
_cell_length_c                    38.3013
_cell_angle_alpha                 90.0
_cell_angle_beta                  90.0
_cell_angle_gamma                 90.0
loop_
_atom_site_label
_atom_site_type_symbol
_atom_site_fract_x
_atom_site_fract_y
_atom_site_fract_z
V1    V   0.17815  0.00000  0.13054
V2    V   0.17815  0.00000  0.86946
V3    V   0.17815  0.50000  0.36946
V4    V   0.17815  0.50000  0.63054
V5    V   0.32185  0.00000  0.36946
V6    V   0.32185  0.00000  0.63054
V7    V   0.32185  0.50000  0.13054
V8    V   0.32185  0.50000  0.86946
V9    V   0.67815  0.00000  0.36946
V10   V   0.67815  0.00000  0.63054
V11   V   0.67815  0.50000  0.13054
V12   V   0.67815  0.50000  0.86946
V13   V   0.82185  0.00000  0.13054
V14   V   0.82185  0.00000  0.86946
V15   V   0.82185  0.50000  0.36946
V16   V   0.82185  0.50000  0.63054
E1    E   0.00000  0.00000  0.13054
E2    E   0.00000  0.00000  0.86946
E3    E   0.00000  0.50000  0.36946
E4    E   0.00000  0.50000  0.63054
E5    E   0.17815  0.00000  0.00000
E6    E   0.17815  0.50000  0.50000
E7    E   0.25000  0.00000  0.25000
E8    E   0.25000  0.00000  0.75000
E9    E   0.25000  0.25000  0.13054
E10   E   0.25000  0.25000  0.36946
E11   E   0.25000  0.25000  0.63054
E12   E   0.25000  0.25000  0.86946
E13   E   0.25000  0.50000  0.25000
E14   E   0.25000  0.50000  0.75000
E15   E   0.25000  0.75000  0.13054
E16   E   0.25000  0.75000  0.36946
E17   E   0.25000  0.75000  0.63054
E18   E   0.25000  0.75000  0.86946
E19   E   0.32185  0.00000  0.50000
E20   E   0.32185  0.50000  0.00000
E21   E   0.50000  0.00000  0.36946
E22   E   0.50000  0.00000  0.63054
E23   E   0.50000  0.50000  0.13054
E24   E   0.50000  0.50000  0.86946
E25   E   0.67815  0.00000  0.50000
E26   E   0.67815  0.50000  0.00000
E27   E   0.75000  0.00000  0.25000
E28   E   0.75000  0.00000  0.75000
E29   E   0.75000  0.25000  0.13054
E30   E   0.75000  0.25000  0.36946
E31   E   0.75000  0.25000  0.63054
E32   E   0.75000  0.25000  0.86946
E33   E   0.75000  0.50000  0.25000
E34   E   0.75000  0.50000  0.75000
E35   E   0.75000  0.75000  0.13054
E36   E   0.75000  0.75000  0.36946
E37   E   0.75000  0.75000  0.63054
E38   E   0.75000  0.75000  0.86946
E39   E   0.82185  0.00000  0.00000
E40   E   0.82185  0.50000  0.50000
loop_
