data_skg_Fdd2  hall_number: 212, V_con: 9
_audit_creation_date              2025-03-05
_audit_creation_method            'MOFbuilder_1.0'
_symmetry_space_group_name_H-M    'P1'
_symmetry_Int_Tables_number       1
_symmetry_cell_setting            triclinic
loop_
_symmetry_equiv_pos_as_xyz
  x,y,z
_cell_length_a                    38.6092
_cell_length_b                    32.7209
_cell_length_c                    10.0
_cell_angle_alpha                 90.0
_cell_angle_beta                  90.0
_cell_angle_gamma                 90.0
loop_
_atom_site_label
_atom_site_type_symbol
_atom_site_fract_x
_atom_site_fract_y
_atom_site_fract_z
V1    V   0.05791  0.13668  0.00000
V2    V   0.05791  0.63668  0.50000
V3    V   0.19209  0.38668  0.25000
V4    V   0.19209  0.88668  0.75000
V5    V   0.30791  0.11332  0.25000
V6    V   0.30791  0.61332  0.75000
V7    V   0.44209  0.36332  0.00000
V8    V   0.44209  0.86332  0.50000
V9    V   0.55791  0.13668  0.50000
V10   V   0.55791  0.63668  0.00000
V11   V   0.69209  0.38668  0.75000
V12   V   0.69209  0.88668  0.25000
V13   V   0.80791  0.11332  0.75000
V14   V   0.80791  0.61332  0.25000
V15   V   0.94209  0.36332  0.50000
V16   V   0.94209  0.86332  0.00000
E1    E   0.00000  0.00000  0.00000
E2    E   0.00000  0.25000  0.25000
E3    E   0.00000  0.25000  0.75000
E4    E   0.00000  0.50000  0.50000
E5    E   0.00000  0.75000  0.25000
E6    E   0.00000  0.75000  0.75000
E7    E   0.05791  0.13668  0.50000
E8    E   0.05791  0.63668  0.00000
E9    E   0.06709  0.37500  0.37500
E10   E   0.06709  0.87500  0.87500
E11   E   0.12500  0.01168  0.87500
E12   E   0.12500  0.26168  0.12500
E13   E   0.12500  0.51168  0.37500
E14   E   0.12500  0.76168  0.62500
E15   E   0.18291  0.12500  0.12500
E16   E   0.18291  0.62500  0.62500
E17   E   0.19209  0.38668  0.75000
E18   E   0.19209  0.88668  0.25000
E19   E   0.25000  0.00000  0.00000
E20   E   0.25000  0.00000  0.50000
E21   E   0.25000  0.25000  0.25000
E22   E   0.25000  0.50000  0.00000
E23   E   0.25000  0.50000  0.50000
E24   E   0.25000  0.75000  0.75000
E25   E   0.30791  0.11332  0.75000
E26   E   0.30791  0.61332  0.25000
E27   E   0.31709  0.37500  0.12500
E28   E   0.31709  0.87500  0.62500
E29   E   0.37500  0.23832  0.12500
E30   E   0.37500  0.48832  0.87500
E31   E   0.37500  0.73832  0.62500
E32   E   0.37500  0.98832  0.37500
E33   E   0.43291  0.12500  0.37500
E34   E   0.43291  0.62500  0.87500
E35   E   0.44209  0.36332  0.50000
E36   E   0.44209  0.86332  0.00000
E37   E   0.50000  0.00000  0.50000
E38   E   0.50000  0.25000  0.25000
E39   E   0.50000  0.25000  0.75000
E40   E   0.50000  0.50000  0.00000
E41   E   0.50000  0.75000  0.25000
E42   E   0.50000  0.75000  0.75000
E43   E   0.55791  0.13668  0.00000
E44   E   0.55791  0.63668  0.50000
E45   E   0.56709  0.37500  0.87500
E46   E   0.56709  0.87500  0.37500
E47   E   0.62500  0.01168  0.37500
E48   E   0.62500  0.26168  0.62500
E49   E   0.62500  0.51168  0.87500
E50   E   0.62500  0.76168  0.12500
E51   E   0.68291  0.12500  0.62500
E52   E   0.68291  0.62500  0.12500
E53   E   0.69209  0.38668  0.25000
E54   E   0.69209  0.88668  0.75000
E55   E   0.75000  0.00000  0.00000
E56   E   0.75000  0.00000  0.50000
E57   E   0.75000  0.25000  0.75000
E58   E   0.75000  0.50000  0.00000
E59   E   0.75000  0.50000  0.50000
E60   E   0.75000  0.75000  0.25000
E61   E   0.80791  0.11332  0.25000
E62   E   0.80791  0.61332  0.75000
E63   E   0.81709  0.37500  0.62500
E64   E   0.81709  0.87500  0.12500
E65   E   0.87500  0.23832  0.62500
E66   E   0.87500  0.48832  0.37500
E67   E   0.87500  0.73832  0.12500
E68   E   0.87500  0.98832  0.87500
E69   E   0.93291  0.12500  0.87500
E70   E   0.93291  0.62500  0.37500
E71   E   0.94209  0.36332  0.00000
E72   E   0.94209  0.86332  0.50000
loop_
