data_smb_R3m:H  hall_number: 160, V_con: 6
_audit_creation_date              2025-03-05
_audit_creation_method            'MOFbuilder_1.0'
_symmetry_space_group_name_H-M    'P1'
_symmetry_Int_Tables_number       1
_symmetry_cell_setting            triclinic
loop_
_symmetry_equiv_pos_as_xyz
  x,y,z
_cell_length_a                    24.9921
_cell_length_b                    24.9921
_cell_length_c                    19.377
_cell_angle_alpha                 90.0
_cell_angle_beta                  90.0
_cell_angle_gamma                 120.0
loop_
_atom_site_label
_atom_site_type_symbol
_atom_site_fract_x
_atom_site_fract_y
_atom_site_fract_z
V1    V   0.10008  0.69996  0.00000
V2    V   0.39992  0.19996  0.00000
V3    V   0.60008  0.19996  0.00000
V4    V   0.89992  0.69996  0.00000
E1    E   0.09998  0.69996  0.00000
E2    E   0.23335  0.53329  0.16667
E3    E   0.26665  0.03329  0.83333
E4    E   0.40002  0.19996  0.00000
E5    E   0.59998  0.19996  0.00000
E6    E   0.73335  0.03329  0.83333
E7    E   0.76665  0.53329  0.16667
E8    E   0.90002  0.69996  0.00000
loop_
