data_smn_R-3c:H  hall_number: 167, V_con: 6
_audit_creation_date              2025-03-05
_audit_creation_method            'MOFbuilder_1.0'
_symmetry_space_group_name_H-M    'P1'
_symmetry_Int_Tables_number       1
_symmetry_cell_setting            triclinic
loop_
_symmetry_equiv_pos_as_xyz
  x,y,z
_cell_length_a                    38.730000000000004
_cell_length_b                    38.730000000000004
_cell_length_c                    12.7908
_cell_angle_alpha                 90.0
_cell_angle_beta                  90.0
_cell_angle_gamma                 120.0
loop_
_atom_site_label
_atom_site_type_symbol
_atom_site_fract_x
_atom_site_fract_y
_atom_site_fract_z
V1    V   0.00000  0.19849  0.75000
V2    V   0.00000  0.30151  0.25000
V3    V   0.50000  0.69849  0.75000
V4    V   0.50000  0.80151  0.25000
E1    E   0.06742  0.16667  0.08333
E2    E   0.06742  0.33333  0.58333
E3    E   0.09925  0.19849  0.50000
E4    E   0.09925  0.30151  0.00000
E5    E   0.56742  0.66667  0.41667
E6    E   0.56742  0.83333  0.91667
E7    E   0.59925  0.69849  0.00000
E8    E   0.59925  0.80151  0.50000
loop_
