data_smp_I-43m  hall_number: 513, V_con: 6
_audit_creation_date              2025-03-05
_audit_creation_method            'MOFbuilder_1.0'
_symmetry_space_group_name_H-M    'P1'
_symmetry_Int_Tables_number       1
_symmetry_cell_setting            triclinic
loop_
_symmetry_equiv_pos_as_xyz
  x,y,z
_cell_length_a                    31.4626
_cell_length_b                    31.4626
_cell_length_c                    31.4626
_cell_angle_alpha                 90.0
_cell_angle_beta                  90.0
_cell_angle_gamma                 90.0
loop_
_atom_site_label
_atom_site_type_symbol
_atom_site_fract_x
_atom_site_fract_y
_atom_site_fract_z
V1    V   0.08168  0.30643  0.69357
V2    V   0.08168  0.69357  0.30643
V3    V   0.19357  0.19357  0.41832
V4    V   0.19357  0.41832  0.19357
V5    V   0.19357  0.58168  0.80643
V6    V   0.19357  0.80643  0.58168
V7    V   0.30643  0.08168  0.69357
V8    V   0.30643  0.30643  0.91832
V9    V   0.30643  0.69357  0.08168
V10   V   0.30643  0.91832  0.30643
V11   V   0.41832  0.19357  0.19357
V12   V   0.41832  0.80643  0.80643
V13   V   0.58168  0.19357  0.80643
V14   V   0.58168  0.80643  0.19357
V15   V   0.69357  0.08168  0.30643
V16   V   0.69357  0.30643  0.08168
V17   V   0.69357  0.69357  0.91832
V18   V   0.69357  0.91832  0.69357
V19   V   0.80643  0.19357  0.58168
V20   V   0.80643  0.41832  0.80643
V21   V   0.80643  0.58168  0.19357
V22   V   0.80643  0.80643  0.41832
V23   V   0.91832  0.30643  0.30643
V24   V   0.91832  0.69357  0.69357
E1    E   0.05595  0.25000  0.36237
E2    E   0.05595  0.36237  0.25000
E3    E   0.05595  0.63763  0.75000
E4    E   0.05595  0.75000  0.63763
E5    E   0.13763  0.25000  0.55595
E6    E   0.13763  0.44405  0.75000
E7    E   0.13763  0.55595  0.25000
E8    E   0.13763  0.75000  0.44405
E9    E   0.19357  0.30595  0.30595
E10   E   0.19357  0.69405  0.69405
E11   E   0.19405  0.19405  0.69357
E12   E   0.19405  0.30643  0.80595
E13   E   0.19405  0.69357  0.19405
E14   E   0.19405  0.80595  0.30643
E15   E   0.25000  0.05595  0.36237
E16   E   0.25000  0.13763  0.55595
E17   E   0.25000  0.36237  0.05595
E18   E   0.25000  0.44405  0.86237
E19   E   0.25000  0.55595  0.13763
E20   E   0.25000  0.63763  0.94405
E21   E   0.25000  0.86237  0.44405
E22   E   0.25000  0.94405  0.63763
E23   E   0.30595  0.19357  0.30595
E24   E   0.30595  0.30595  0.19357
E25   E   0.30595  0.69405  0.80643
E26   E   0.30595  0.80643  0.69405
E27   E   0.30643  0.19405  0.80595
E28   E   0.30643  0.80595  0.19405
E29   E   0.36237  0.05595  0.25000
E30   E   0.36237  0.25000  0.05595
E31   E   0.36237  0.75000  0.94405
E32   E   0.36237  0.94405  0.75000
E33   E   0.44405  0.13763  0.75000
E34   E   0.44405  0.25000  0.86237
E35   E   0.44405  0.75000  0.13763
E36   E   0.44405  0.86237  0.25000
E37   E   0.55595  0.13763  0.25000
E38   E   0.55595  0.25000  0.13763
E39   E   0.55595  0.75000  0.86237
E40   E   0.55595  0.86237  0.75000
E41   E   0.63763  0.05595  0.75000
E42   E   0.63763  0.25000  0.94405
E43   E   0.63763  0.75000  0.05595
E44   E   0.63763  0.94405  0.25000
E45   E   0.69357  0.19405  0.19405
E46   E   0.69357  0.80595  0.80595
E47   E   0.69405  0.19357  0.69405
E48   E   0.69405  0.30595  0.80643
E49   E   0.69405  0.69405  0.19357
E50   E   0.69405  0.80643  0.30595
E51   E   0.75000  0.05595  0.63763
E52   E   0.75000  0.13763  0.44405
E53   E   0.75000  0.36237  0.94405
E54   E   0.75000  0.44405  0.13763
E55   E   0.75000  0.55595  0.86237
E56   E   0.75000  0.63763  0.05595
E57   E   0.75000  0.86237  0.55595
E58   E   0.75000  0.94405  0.36237
E59   E   0.80595  0.19405  0.30643
E60   E   0.80595  0.30643  0.19405
E61   E   0.80595  0.69357  0.80595
E62   E   0.80595  0.80595  0.69357
E63   E   0.80643  0.30595  0.69405
E64   E   0.80643  0.69405  0.30595
E65   E   0.86237  0.25000  0.44405
E66   E   0.86237  0.44405  0.25000
E67   E   0.86237  0.55595  0.75000
E68   E   0.86237  0.75000  0.55595
E69   E   0.94405  0.25000  0.63763
E70   E   0.94405  0.36237  0.75000
E71   E   0.94405  0.63763  0.25000
E72   E   0.94405  0.75000  0.36237
loop_
