data_smt_P61  hall_number: 463, V_con: 6
_audit_creation_date              2025-03-05
_audit_creation_method            'MOFbuilder_1.0'
_symmetry_space_group_name_H-M    'P1'
_symmetry_Int_Tables_number       1
_symmetry_cell_setting            triclinic
loop_
_symmetry_equiv_pos_as_xyz
  x,y,z
_cell_length_a                    22.5018
_cell_length_b                    22.5018
_cell_length_c                    16.6133
_cell_angle_alpha                 90.0
_cell_angle_beta                  90.0
_cell_angle_gamma                 120.0
loop_
_atom_site_label
_atom_site_type_symbol
_atom_site_fract_x
_atom_site_fract_y
_atom_site_fract_z
V1    V   0.10599  0.63594  0.83333
V2    V   0.36406  0.47005  0.16667
V3    V   0.47005  0.10599  0.00000
V4    V   0.52995  0.89401  0.50000
V5    V   0.63594  0.52995  0.66667
V6    V   0.89401  0.36406  0.33333
E1    E   0.00000  0.50000  0.08333
E2    E   0.00000  0.50000  0.58333
E3    E   0.12903  0.41705  0.25000
E4    E   0.23503  0.55300  1.00000
E5    E   0.28802  0.87097  0.91667
E6    E   0.31797  0.76497  0.66666
E7    E   0.41705  0.28802  0.08334
E8    E   0.44700  0.68203  0.33333
E9    E   0.50000  0.00000  0.25000
E10   E   0.50000  0.00000  0.75000
E11   E   0.50000  0.50000  0.41667
E12   E   0.50000  0.50000  0.91667
E13   E   0.55300  0.31797  0.83333
E14   E   0.58295  0.71198  0.58334
E15   E   0.68203  0.23503  0.16666
E16   E   0.71198  0.12903  0.41667
E17   E   0.76497  0.44700  0.50000
E18   E   0.87097  0.58295  0.75000
loop_
