data_snb_F4132  hall_number: 506, V_con: 6
_audit_creation_date              2025-03-05
_audit_creation_method            'MOFbuilder_1.0'
_symmetry_space_group_name_H-M    'P1'
_symmetry_Int_Tables_number       1
_symmetry_cell_setting            triclinic
loop_
_symmetry_equiv_pos_as_xyz
  x,y,z
_cell_length_a                    57.7187
_cell_length_b                    57.7187
_cell_length_c                    57.7187
_cell_angle_alpha                 90.0
_cell_angle_beta                  90.0
_cell_angle_gamma                 90.0
loop_
_atom_site_label
_atom_site_type_symbol
_atom_site_fract_x
_atom_site_fract_y
_atom_site_fract_z
V1    V   0.00000  0.14017  0.41337
V2    V   0.00000  0.14017  0.58663
V3    V   0.00000  0.35983  0.08663
V4    V   0.00000  0.35983  0.91337
V5    V   0.00000  0.64017  0.08663
V6    V   0.00000  0.64017  0.91337
V7    V   0.00000  0.85983  0.41337
V8    V   0.00000  0.85983  0.58663
V9    V   0.08663  0.00000  0.35983
V10   V   0.08663  0.00000  0.64017
V11   V   0.08663  0.50000  0.14017
V12   V   0.08663  0.50000  0.85983
V13   V   0.10983  0.25000  0.66337
V14   V   0.10983  0.25000  0.83663
V15   V   0.10983  0.75000  0.16337
V16   V   0.10983  0.75000  0.33663
V17   V   0.14017  0.08663  0.50000
V18   V   0.14017  0.41337  0.00000
V19   V   0.14017  0.58663  0.00000
V20   V   0.14017  0.91337  0.50000
V21   V   0.16337  0.10983  0.75000
V22   V   0.16337  0.39017  0.75000
V23   V   0.16337  0.60983  0.25000
V24   V   0.16337  0.89017  0.25000
V25   V   0.25000  0.16337  0.60983
V26   V   0.25000  0.16337  0.89017
V27   V   0.25000  0.33663  0.60983
V28   V   0.25000  0.33663  0.89017
V29   V   0.25000  0.66337  0.10983
V30   V   0.25000  0.66337  0.39017
V31   V   0.25000  0.83663  0.10983
V32   V   0.25000  0.83663  0.39017
V33   V   0.33663  0.10983  0.75000
V34   V   0.33663  0.39017  0.75000
V35   V   0.33663  0.60983  0.25000
V36   V   0.33663  0.89017  0.25000
V37   V   0.35983  0.08663  0.00000
V38   V   0.35983  0.41337  0.50000
V39   V   0.35983  0.58663  0.50000
V40   V   0.35983  0.91337  0.00000
V41   V   0.39017  0.25000  0.66337
V42   V   0.39017  0.25000  0.83663
V43   V   0.39017  0.75000  0.16337
V44   V   0.39017  0.75000  0.33663
V45   V   0.41337  0.00000  0.14017
V46   V   0.41337  0.00000  0.85983
V47   V   0.41337  0.50000  0.35983
V48   V   0.41337  0.50000  0.64017
V49   V   0.50000  0.14017  0.08663
V50   V   0.50000  0.14017  0.91337
V51   V   0.50000  0.35983  0.41337
V52   V   0.50000  0.35983  0.58663
V53   V   0.50000  0.64017  0.41337
V54   V   0.50000  0.64017  0.58663
V55   V   0.50000  0.85983  0.08663
V56   V   0.50000  0.85983  0.91337
V57   V   0.58663  0.00000  0.14017
V58   V   0.58663  0.00000  0.85983
V59   V   0.58663  0.50000  0.35983
V60   V   0.58663  0.50000  0.64017
V61   V   0.60983  0.25000  0.16337
V62   V   0.60983  0.25000  0.33663
V63   V   0.60983  0.75000  0.66337
V64   V   0.60983  0.75000  0.83663
V65   V   0.64017  0.08663  0.00000
V66   V   0.64017  0.41337  0.50000
V67   V   0.64017  0.58663  0.50000
V68   V   0.64017  0.91337  0.00000
V69   V   0.66337  0.10983  0.25000
V70   V   0.66337  0.39017  0.25000
V71   V   0.66337  0.60983  0.75000
V72   V   0.66337  0.89017  0.75000
V73   V   0.75000  0.16337  0.10983
V74   V   0.75000  0.16337  0.39017
V75   V   0.75000  0.33663  0.10983
V76   V   0.75000  0.33663  0.39017
V77   V   0.75000  0.66337  0.60983
V78   V   0.75000  0.66337  0.89017
V79   V   0.75000  0.83663  0.60983
V80   V   0.75000  0.83663  0.89017
V81   V   0.83663  0.10983  0.25000
V82   V   0.83663  0.39017  0.25000
V83   V   0.83663  0.60983  0.75000
V84   V   0.83663  0.89017  0.75000
V85   V   0.85983  0.08663  0.50000
V86   V   0.85983  0.41337  0.00000
V87   V   0.85983  0.58663  0.00000
V88   V   0.85983  0.91337  0.50000
V89   V   0.89017  0.25000  0.16337
V90   V   0.89017  0.25000  0.33663
V91   V   0.89017  0.75000  0.66337
V92   V   0.89017  0.75000  0.83663
V93   V   0.91337  0.00000  0.35983
V94   V   0.91337  0.00000  0.64017
V95   V   0.91337  0.50000  0.14017
V96   V   0.91337  0.50000  0.85983
E1    E   0.00000  0.00000  0.35983
E2    E   0.00000  0.00000  0.64017
E3    E   0.00000  0.14017  0.50000
E4    E   0.00000  0.35983  0.00000
E5    E   0.00000  0.50000  0.14017
E6    E   0.00000  0.50000  0.85983
E7    E   0.00000  0.64017  0.00000
E8    E   0.00000  0.85983  0.50000
E9    E   0.04331  0.07008  0.38660
E10   E   0.04331  0.07008  0.61340
E11   E   0.04331  0.42992  0.11340
E12   E   0.04331  0.42992  0.88660
E13   E   0.04331  0.57008  0.11340
E14   E   0.04331  0.57008  0.88660
E15   E   0.04331  0.92992  0.38660
E16   E   0.04331  0.92992  0.61340
E17   E   0.05492  0.19508  0.62500
E18   E   0.05492  0.30492  0.87500
E19   E   0.05492  0.69508  0.12500
E20   E   0.05492  0.80492  0.37500
E21   E   0.07008  0.11340  0.45669
E22   E   0.07008  0.11340  0.54331
E23   E   0.07008  0.38660  0.04331
E24   E   0.07008  0.38660  0.95669
E25   E   0.07008  0.61340  0.04331
E26   E   0.07008  0.61340  0.95669
E27   E   0.07008  0.88660  0.45669
E28   E   0.07008  0.88660  0.54331
E29   E   0.10983  0.25000  0.75000
E30   E   0.10983  0.75000  0.25000
E31   E   0.11340  0.04331  0.42992
E32   E   0.11340  0.04331  0.57008
E33   E   0.11340  0.45669  0.07008
E34   E   0.11340  0.45669  0.92992
E35   E   0.11340  0.54331  0.07008
E36   E   0.11340  0.54331  0.92992
E37   E   0.11340  0.95669  0.42992
E38   E   0.11340  0.95669  0.57008
E39   E   0.12500  0.05492  0.69508
E40   E   0.12500  0.44508  0.80492
E41   E   0.12500  0.55492  0.19508
E42   E   0.12500  0.94508  0.30492
E43   E   0.13660  0.17992  0.70669
E44   E   0.13660  0.17992  0.79331
E45   E   0.13660  0.32008  0.70669
E46   E   0.13660  0.32008  0.79331
E47   E   0.13660  0.67992  0.20669
E48   E   0.13660  0.67992  0.29331
E49   E   0.13660  0.82008  0.20669
E50   E   0.13660  0.82008  0.29331
E51   E   0.14017  0.00000  0.50000
E52   E   0.14017  0.50000  0.00000
E53   E   0.17992  0.20669  0.63660
E54   E   0.17992  0.20669  0.86340
E55   E   0.17992  0.29331  0.63660
E56   E   0.17992  0.29331  0.86340
E57   E   0.17992  0.70669  0.13660
E58   E   0.17992  0.70669  0.36340
E59   E   0.17992  0.79331  0.13660
E60   E   0.17992  0.79331  0.36340
E61   E   0.19508  0.12500  0.55492
E62   E   0.19508  0.37500  0.94508
E63   E   0.19508  0.62500  0.05492
E64   E   0.19508  0.87500  0.44508
E65   E   0.20669  0.13660  0.67992
E66   E   0.20669  0.13660  0.82008
E67   E   0.20669  0.36340  0.67992
E68   E   0.20669  0.36340  0.82008
E69   E   0.20669  0.63660  0.17992
E70   E   0.20669  0.63660  0.32008
E71   E   0.20669  0.86340  0.17992
E72   E   0.20669  0.86340  0.32008
E73   E   0.25000  0.10983  0.75000
E74   E   0.25000  0.25000  0.60983
E75   E   0.25000  0.25000  0.89017
E76   E   0.25000  0.39017  0.75000
E77   E   0.25000  0.60983  0.25000
E78   E   0.25000  0.75000  0.10983
E79   E   0.25000  0.75000  0.39017
E80   E   0.25000  0.89017  0.25000
E81   E   0.29331  0.13660  0.67992
E82   E   0.29331  0.13660  0.82008
E83   E   0.29331  0.36340  0.67992
E84   E   0.29331  0.36340  0.82008
E85   E   0.29331  0.63660  0.17992
E86   E   0.29331  0.63660  0.32008
E87   E   0.29331  0.86340  0.17992
E88   E   0.29331  0.86340  0.32008
E89   E   0.30492  0.12500  0.94508
E90   E   0.30492  0.37500  0.55492
E91   E   0.30492  0.62500  0.44508
E92   E   0.30492  0.87500  0.05492
E93   E   0.32008  0.20669  0.63660
E94   E   0.32008  0.20669  0.86340
E95   E   0.32008  0.29331  0.63660
E96   E   0.32008  0.29331  0.86340
E97   E   0.32008  0.70669  0.13660
E98   E   0.32008  0.70669  0.36340
E99   E   0.32008  0.79331  0.13660
E100  E   0.32008  0.79331  0.36340
E101  E   0.35983  0.00000  0.00000
E102  E   0.35983  0.50000  0.50000
E103  E   0.36340  0.17992  0.70669
E104  E   0.36340  0.17992  0.79331
E105  E   0.36340  0.32008  0.70669
E106  E   0.36340  0.32008  0.79331
E107  E   0.36340  0.67992  0.20669
E108  E   0.36340  0.67992  0.29331
E109  E   0.36340  0.82008  0.20669
E110  E   0.36340  0.82008  0.29331
E111  E   0.37500  0.05492  0.80492
E112  E   0.37500  0.44508  0.69508
E113  E   0.37500  0.55492  0.30492
E114  E   0.37500  0.94508  0.19508
E115  E   0.38660  0.04331  0.07008
E116  E   0.38660  0.04331  0.92992
E117  E   0.38660  0.45669  0.42992
E118  E   0.38660  0.45669  0.57008
E119  E   0.38660  0.54331  0.42992
E120  E   0.38660  0.54331  0.57008
E121  E   0.38660  0.95669  0.07008
E122  E   0.38660  0.95669  0.92992
E123  E   0.39017  0.25000  0.75000
E124  E   0.39017  0.75000  0.25000
E125  E   0.42992  0.11340  0.04331
E126  E   0.42992  0.11340  0.95669
E127  E   0.42992  0.38660  0.45669
E128  E   0.42992  0.38660  0.54331
E129  E   0.42992  0.61340  0.45669
E130  E   0.42992  0.61340  0.54331
E131  E   0.42992  0.88660  0.04331
E132  E   0.42992  0.88660  0.95669
E133  E   0.44508  0.19508  0.87500
E134  E   0.44508  0.30492  0.62500
E135  E   0.44508  0.69508  0.37500
E136  E   0.44508  0.80492  0.12500
E137  E   0.45669  0.07008  0.11340
E138  E   0.45669  0.07008  0.88660
E139  E   0.45669  0.42992  0.38660
E140  E   0.45669  0.42992  0.61340
E141  E   0.45669  0.57008  0.38660
E142  E   0.45669  0.57008  0.61340
E143  E   0.45669  0.92992  0.11340
E144  E   0.45669  0.92992  0.88660
E145  E   0.50000  0.00000  0.14017
E146  E   0.50000  0.00000  0.85983
E147  E   0.50000  0.14017  0.00000
E148  E   0.50000  0.35983  0.50000
E149  E   0.50000  0.50000  0.35983
E150  E   0.50000  0.50000  0.64017
E151  E   0.50000  0.64017  0.50000
E152  E   0.50000  0.85983  0.00000
E153  E   0.54331  0.07008  0.11340
E154  E   0.54331  0.07008  0.88660
E155  E   0.54331  0.42992  0.38660
E156  E   0.54331  0.42992  0.61340
E157  E   0.54331  0.57008  0.38660
E158  E   0.54331  0.57008  0.61340
E159  E   0.54331  0.92992  0.11340
E160  E   0.54331  0.92992  0.88660
E161  E   0.55492  0.19508  0.12500
E162  E   0.55492  0.30492  0.37500
E163  E   0.55492  0.69508  0.62500
E164  E   0.55492  0.80492  0.87500
E165  E   0.57008  0.11340  0.04331
E166  E   0.57008  0.11340  0.95669
E167  E   0.57008  0.38660  0.45669
E168  E   0.57008  0.38660  0.54331
E169  E   0.57008  0.61340  0.45669
E170  E   0.57008  0.61340  0.54331
E171  E   0.57008  0.88660  0.04331
E172  E   0.57008  0.88660  0.95669
E173  E   0.60983  0.25000  0.25000
E174  E   0.60983  0.75000  0.75000
E175  E   0.61340  0.04331  0.07008
E176  E   0.61340  0.04331  0.92992
E177  E   0.61340  0.45669  0.42992
E178  E   0.61340  0.45669  0.57008
E179  E   0.61340  0.54331  0.42992
E180  E   0.61340  0.54331  0.57008
E181  E   0.61340  0.95669  0.07008
E182  E   0.61340  0.95669  0.92992
E183  E   0.62500  0.05492  0.19508
E184  E   0.62500  0.44508  0.30492
E185  E   0.62500  0.55492  0.69508
E186  E   0.62500  0.94508  0.80492
E187  E   0.63660  0.17992  0.20669
E188  E   0.63660  0.17992  0.29331
E189  E   0.63660  0.32008  0.20669
E190  E   0.63660  0.32008  0.29331
E191  E   0.63660  0.67992  0.70669
E192  E   0.63660  0.67992  0.79331
E193  E   0.63660  0.82008  0.70669
E194  E   0.63660  0.82008  0.79331
E195  E   0.64017  0.00000  0.00000
E196  E   0.64017  0.50000  0.50000
E197  E   0.67992  0.20669  0.13660
E198  E   0.67992  0.20669  0.36340
E199  E   0.67992  0.29331  0.13660
E200  E   0.67992  0.29331  0.36340
E201  E   0.67992  0.70669  0.63660
E202  E   0.67992  0.70669  0.86340
E203  E   0.67992  0.79331  0.63660
E204  E   0.67992  0.79331  0.86340
E205  E   0.69508  0.12500  0.05492
E206  E   0.69508  0.37500  0.44508
E207  E   0.69508  0.62500  0.55492
E208  E   0.69508  0.87500  0.94508
E209  E   0.70669  0.13660  0.17992
E210  E   0.70669  0.13660  0.32008
E211  E   0.70669  0.36340  0.17992
E212  E   0.70669  0.36340  0.32008
E213  E   0.70669  0.63660  0.67992
E214  E   0.70669  0.63660  0.82008
E215  E   0.70669  0.86340  0.67992
E216  E   0.70669  0.86340  0.82008
E217  E   0.75000  0.10983  0.25000
E218  E   0.75000  0.25000  0.10983
E219  E   0.75000  0.25000  0.39017
E220  E   0.75000  0.39017  0.25000
E221  E   0.75000  0.60983  0.75000
E222  E   0.75000  0.75000  0.60983
E223  E   0.75000  0.75000  0.89017
E224  E   0.75000  0.89017  0.75000
E225  E   0.79331  0.13660  0.17992
E226  E   0.79331  0.13660  0.32008
E227  E   0.79331  0.36340  0.17992
E228  E   0.79331  0.36340  0.32008
E229  E   0.79331  0.63660  0.67992
E230  E   0.79331  0.63660  0.82008
E231  E   0.79331  0.86340  0.67992
E232  E   0.79331  0.86340  0.82008
E233  E   0.80492  0.12500  0.44508
E234  E   0.80492  0.37500  0.05492
E235  E   0.80492  0.62500  0.94508
E236  E   0.80492  0.87500  0.55492
E237  E   0.82008  0.20669  0.13660
E238  E   0.82008  0.20669  0.36340
E239  E   0.82008  0.29331  0.13660
E240  E   0.82008  0.29331  0.36340
E241  E   0.82008  0.70669  0.63660
E242  E   0.82008  0.70669  0.86340
E243  E   0.82008  0.79331  0.63660
E244  E   0.82008  0.79331  0.86340
E245  E   0.85983  0.00000  0.50000
E246  E   0.85983  0.50000  0.00000
E247  E   0.86340  0.17992  0.20669
E248  E   0.86340  0.17992  0.29331
E249  E   0.86340  0.32008  0.20669
E250  E   0.86340  0.32008  0.29331
E251  E   0.86340  0.67992  0.70669
E252  E   0.86340  0.67992  0.79331
E253  E   0.86340  0.82008  0.70669
E254  E   0.86340  0.82008  0.79331
E255  E   0.87500  0.05492  0.30492
E256  E   0.87500  0.44508  0.19508
E257  E   0.87500  0.55492  0.80492
E258  E   0.87500  0.94508  0.69508
E259  E   0.88660  0.04331  0.42992
E260  E   0.88660  0.04331  0.57008
E261  E   0.88660  0.45669  0.07008
E262  E   0.88660  0.45669  0.92992
E263  E   0.88660  0.54331  0.07008
E264  E   0.88660  0.54331  0.92992
E265  E   0.88660  0.95669  0.42992
E266  E   0.88660  0.95669  0.57008
E267  E   0.89017  0.25000  0.25000
E268  E   0.89017  0.75000  0.75000
E269  E   0.92992  0.11340  0.45669
E270  E   0.92992  0.11340  0.54331
E271  E   0.92992  0.38660  0.04331
E272  E   0.92992  0.38660  0.95669
E273  E   0.92992  0.61340  0.04331
E274  E   0.92992  0.61340  0.95669
E275  E   0.92992  0.88660  0.45669
E276  E   0.92992  0.88660  0.54331
E277  E   0.94508  0.19508  0.37500
E278  E   0.94508  0.30492  0.12500
E279  E   0.94508  0.69508  0.87500
E280  E   0.94508  0.80492  0.62500
E281  E   0.95669  0.07008  0.38660
E282  E   0.95669  0.07008  0.61340
E283  E   0.95669  0.42992  0.11340
E284  E   0.95669  0.42992  0.88660
E285  E   0.95669  0.57008  0.11340
E286  E   0.95669  0.57008  0.88660
E287  E   0.95669  0.92992  0.38660
E288  E   0.95669  0.92992  0.61340
loop_
