data_snm_P4122  hall_number: 368, V_con: 6
_audit_creation_date              2025-03-05
_audit_creation_method            'MOFbuilder_1.0'
_symmetry_space_group_name_H-M    'P1'
_symmetry_Int_Tables_number       1
_symmetry_cell_setting            triclinic
loop_
_symmetry_equiv_pos_as_xyz
  x,y,z
_cell_length_a                    22.3532
_cell_length_b                    22.3532
_cell_length_c                    10.0001
_cell_angle_alpha                 90.0
_cell_angle_beta                  90.0
_cell_angle_gamma                 90.0
loop_
_atom_site_label
_atom_site_type_symbol
_atom_site_fract_x
_atom_site_fract_y
_atom_site_fract_z
V1    V   0.00000  0.30629  0.50000
V2    V   0.00000  0.69371  0.00000
V3    V   0.30629  0.00000  0.25000
V4    V   0.69371  0.00000  0.75000
E1    E   0.00000  0.30629  0.00000
E2    E   0.00000  0.50000  0.25000
E3    E   0.00000  0.50000  0.75000
E4    E   0.00000  0.69371  0.50000
E5    E   0.15314  0.15314  0.37500
E6    E   0.15314  0.84686  0.12500
E7    E   0.15314  0.15314  0.37500
E8    E   0.15314  0.84686  0.12500
E9    E   0.30629  0.00000  0.75000
E10   E   0.50000  0.00000  0.00000
E11   E   0.50000  0.00000  0.50000
E12   E   0.69371  0.00000  0.25000
E13   E   0.84686  0.15314  0.62500
E14   E   0.84686  0.15314  0.62500
E15   E   0.84686  0.84686  0.87500
loop_
