data_snr_I432  hall_number: 507, V_con: 6
_audit_creation_date              2025-03-05
_audit_creation_method            'MOFbuilder_1.0'
_symmetry_space_group_name_H-M    'P1'
_symmetry_Int_Tables_number       1
_symmetry_cell_setting            triclinic
loop_
_symmetry_equiv_pos_as_xyz
  x,y,z
_cell_length_a                    39.348200000000006
_cell_length_b                    39.348200000000006
_cell_length_c                    39.348200000000006
_cell_angle_alpha                 90.0
_cell_angle_beta                  90.0
_cell_angle_gamma                 90.0
loop_
_atom_site_label
_atom_site_type_symbol
_atom_site_fract_x
_atom_site_fract_y
_atom_site_fract_z
V1    V   0.08584  0.15788  0.70961
V2    V   0.08584  0.29039  0.15788
V3    V   0.08584  0.70961  0.84212
V4    V   0.08584  0.84212  0.29039
V5    V   0.15788  0.08584  0.29039
V6    V   0.15788  0.29039  0.91416
V7    V   0.15788  0.70961  0.08584
V8    V   0.15788  0.91416  0.70961
V9    V   0.20961  0.34212  0.58584
V10   V   0.20961  0.41416  0.34212
V11   V   0.20961  0.58584  0.65788
V12   V   0.20961  0.65788  0.41416
V13   V   0.29039  0.08584  0.84212
V14   V   0.29039  0.15788  0.08584
V15   V   0.29039  0.84212  0.91416
V16   V   0.29039  0.91416  0.15788
V17   V   0.34212  0.20961  0.41416
V18   V   0.34212  0.41416  0.79039
V19   V   0.34212  0.58584  0.20961
V20   V   0.34212  0.79039  0.58584
V21   V   0.41416  0.20961  0.65788
V22   V   0.41416  0.34212  0.20961
V23   V   0.41416  0.65788  0.79039
V24   V   0.41416  0.79039  0.34212
V25   V   0.58584  0.20961  0.34212
V26   V   0.58584  0.34212  0.79039
V27   V   0.58584  0.65788  0.20961
V28   V   0.58584  0.79039  0.65788
V29   V   0.65788  0.20961  0.58584
V30   V   0.65788  0.41416  0.20961
V31   V   0.65788  0.58584  0.79039
V32   V   0.65788  0.79039  0.41416
V33   V   0.70961  0.08584  0.15788
V34   V   0.70961  0.15788  0.91416
V35   V   0.70961  0.84212  0.08584
V36   V   0.70961  0.91416  0.84212
V37   V   0.79039  0.34212  0.41416
V38   V   0.79039  0.41416  0.65788
V39   V   0.79039  0.58584  0.34212
V40   V   0.79039  0.65788  0.58584
V41   V   0.84212  0.08584  0.70961
V42   V   0.84212  0.29039  0.08584
V43   V   0.84212  0.70961  0.91416
V44   V   0.84212  0.91416  0.29039
V45   V   0.91416  0.15788  0.29039
V46   V   0.91416  0.29039  0.84212
V47   V   0.91416  0.70961  0.15788
V48   V   0.91416  0.84212  0.70961
E1    E   0.00000  0.22413  0.22413
E2    E   0.00000  0.22413  0.77587
E3    E   0.00000  0.77587  0.22413
E4    E   0.00000  0.77587  0.77587
E5    E   0.03602  0.12186  0.29039
E6    E   0.03602  0.29039  0.87814
E7    E   0.03602  0.70961  0.12186
E8    E   0.03602  0.87814  0.70961
E9    E   0.12186  0.03602  0.70961
E10   E   0.12186  0.18811  0.22413
E11   E   0.12186  0.22413  0.81189
E12   E   0.12186  0.29039  0.03602
E13   E   0.12186  0.70961  0.96398
E14   E   0.12186  0.77587  0.18811
E15   E   0.12186  0.81189  0.77587
E16   E   0.12186  0.96398  0.29039
E17   E   0.14773  0.25000  0.64773
E18   E   0.14773  0.35227  0.25000
E19   E   0.14773  0.64773  0.75000
E20   E   0.14773  0.75000  0.35227
E21   E   0.14773  0.25000  0.64773
E22   E   0.14773  0.35227  0.25000
E23   E   0.14773  0.64773  0.75000
E24   E   0.14773  0.75000  0.35227
E25   E   0.18811  0.12186  0.77587
E26   E   0.18811  0.22413  0.12186
E27   E   0.18811  0.77587  0.87814
E28   E   0.18811  0.87814  0.22413
E29   E   0.20961  0.37814  0.46398
E30   E   0.20961  0.46398  0.62186
E31   E   0.20961  0.53602  0.37814
E32   E   0.20961  0.62186  0.53602
E33   E   0.22413  0.00000  0.22413
E34   E   0.22413  0.00000  0.77587
E35   E   0.22413  0.12186  0.18811
E36   E   0.22413  0.18811  0.87814
E37   E   0.22413  0.22413  0.00000
E38   E   0.22413  0.77587  0.00000
E39   E   0.22413  0.81189  0.12186
E40   E   0.22413  0.87814  0.81189
E41   E   0.25000  0.14773  0.35227
E42   E   0.25000  0.14773  0.35227
E43   E   0.25000  0.35227  0.85227
E44   E   0.25000  0.35227  0.85227
E45   E   0.25000  0.64773  0.14773
E46   E   0.25000  0.64773  0.14773
E47   E   0.25000  0.85227  0.64773
E48   E   0.25000  0.85227  0.64773
E49   E   0.27587  0.27587  0.50000
E50   E   0.27587  0.31189  0.37814
E51   E   0.27587  0.37814  0.68811
E52   E   0.27587  0.50000  0.27587
E53   E   0.27587  0.50000  0.72413
E54   E   0.27587  0.62186  0.31189
E55   E   0.27587  0.68811  0.62186
E56   E   0.27587  0.72413  0.50000
E57   E   0.29039  0.03602  0.12186
E58   E   0.29039  0.12186  0.96398
E59   E   0.29039  0.87814  0.03602
E60   E   0.29039  0.96398  0.87814
E61   E   0.31189  0.27587  0.62186
E62   E   0.31189  0.37814  0.27587
E63   E   0.31189  0.62186  0.72413
E64   E   0.31189  0.72413  0.37814
E65   E   0.35227  0.14773  0.75000
E66   E   0.35227  0.25000  0.14773
E67   E   0.35227  0.75000  0.85227
E68   E   0.35227  0.85227  0.25000
E69   E   0.35227  0.14773  0.75000
E70   E   0.35227  0.25000  0.14773
E71   E   0.35227  0.75000  0.85227
E72   E   0.35227  0.85227  0.25000
E73   E   0.37814  0.20961  0.53602
E74   E   0.37814  0.27587  0.31189
E75   E   0.37814  0.31189  0.72413
E76   E   0.37814  0.46398  0.20961
E77   E   0.37814  0.53602  0.79039
E78   E   0.37814  0.68811  0.27587
E79   E   0.37814  0.72413  0.68811
E80   E   0.37814  0.79039  0.46398
E81   E   0.46398  0.20961  0.37814
E82   E   0.46398  0.37814  0.79039
E83   E   0.46398  0.62186  0.20961
E84   E   0.46398  0.79039  0.62186
E85   E   0.50000  0.27587  0.27587
E86   E   0.50000  0.27587  0.72413
E87   E   0.50000  0.72413  0.27587
E88   E   0.50000  0.72413  0.72413
E89   E   0.53602  0.20961  0.62186
E90   E   0.53602  0.37814  0.20961
E91   E   0.53602  0.62186  0.79039
E92   E   0.53602  0.79039  0.37814
E93   E   0.62186  0.20961  0.46398
E94   E   0.62186  0.27587  0.68811
E95   E   0.62186  0.31189  0.27587
E96   E   0.62186  0.46398  0.79039
E97   E   0.62186  0.53602  0.20961
E98   E   0.62186  0.68811  0.72413
E99   E   0.62186  0.72413  0.31189
E100  E   0.62186  0.79039  0.53602
E101  E   0.64773  0.14773  0.25000
E102  E   0.64773  0.25000  0.85227
E103  E   0.64773  0.75000  0.14773
E104  E   0.64773  0.85227  0.75000
E105  E   0.64773  0.14773  0.25000
E106  E   0.64773  0.25000  0.85227
E107  E   0.64773  0.75000  0.14773
E108  E   0.64773  0.85227  0.75000
E109  E   0.68811  0.27587  0.37814
E110  E   0.68811  0.37814  0.72413
E111  E   0.68811  0.62186  0.27587
E112  E   0.68811  0.72413  0.62186
E113  E   0.70961  0.03602  0.87814
E114  E   0.70961  0.12186  0.03602
E115  E   0.70961  0.87814  0.96398
E116  E   0.70961  0.96398  0.12186
E117  E   0.72413  0.27587  0.50000
E118  E   0.72413  0.31189  0.62186
E119  E   0.72413  0.37814  0.31189
E120  E   0.72413  0.50000  0.27587
E121  E   0.72413  0.50000  0.72413
E122  E   0.72413  0.62186  0.68811
E123  E   0.72413  0.68811  0.37814
E124  E   0.72413  0.72413  0.50000
E125  E   0.75000  0.14773  0.64773
E126  E   0.75000  0.14773  0.64773
E127  E   0.75000  0.35227  0.14773
E128  E   0.75000  0.35227  0.14773
E129  E   0.75000  0.64773  0.85227
E130  E   0.75000  0.64773  0.85227
E131  E   0.75000  0.85227  0.35227
E132  E   0.75000  0.85227  0.35227
E133  E   0.77587  0.00000  0.22413
E134  E   0.77587  0.00000  0.77587
E135  E   0.77587  0.12186  0.81189
E136  E   0.77587  0.18811  0.12186
E137  E   0.77587  0.22413  0.00000
E138  E   0.77587  0.77587  0.00000
E139  E   0.77587  0.81189  0.87814
E140  E   0.77587  0.87814  0.18811
E141  E   0.79039  0.37814  0.53602
E142  E   0.79039  0.46398  0.37814
E143  E   0.79039  0.53602  0.62186
E144  E   0.79039  0.62186  0.46398
E145  E   0.81189  0.12186  0.22413
E146  E   0.81189  0.22413  0.87814
E147  E   0.81189  0.77587  0.12186
E148  E   0.81189  0.87814  0.77587
E149  E   0.85227  0.25000  0.35227
E150  E   0.85227  0.35227  0.75000
E151  E   0.85227  0.64773  0.25000
E152  E   0.85227  0.75000  0.64773
E153  E   0.85227  0.25000  0.35227
E154  E   0.85227  0.35227  0.75000
E155  E   0.85227  0.64773  0.25000
E156  E   0.85227  0.75000  0.64773
E157  E   0.87814  0.03602  0.29039
E158  E   0.87814  0.18811  0.77587
E159  E   0.87814  0.22413  0.18811
E160  E   0.87814  0.29039  0.96398
E161  E   0.87814  0.70961  0.03602
E162  E   0.87814  0.77587  0.81189
E163  E   0.87814  0.81189  0.22413
E164  E   0.87814  0.96398  0.70961
E165  E   0.96398  0.12186  0.70961
E166  E   0.96398  0.29039  0.12186
E167  E   0.96398  0.70961  0.87814
E168  E   0.96398  0.87814  0.29039
loop_
