data_snv_P432  hall_number: 503, V_con: 6
_audit_creation_date              2025-03-05
_audit_creation_method            'MOFbuilder_1.0'
_symmetry_space_group_name_H-M    'P1'
_symmetry_Int_Tables_number       1
_symmetry_cell_setting            triclinic
loop_
_symmetry_equiv_pos_as_xyz
  x,y,z
_cell_length_a                    32.0135
_cell_length_b                    32.0135
_cell_length_c                    32.0135
_cell_angle_alpha                 90.0
_cell_angle_beta                  90.0
_cell_angle_gamma                 90.0
loop_
_atom_site_label
_atom_site_type_symbol
_atom_site_fract_x
_atom_site_fract_y
_atom_site_fract_z
V1    V   0.14308  0.30595  0.60550
V2    V   0.14308  0.39450  0.30595
V3    V   0.14308  0.60550  0.69405
V4    V   0.14308  0.69405  0.39450
V5    V   0.30595  0.14308  0.39450
V6    V   0.30595  0.39450  0.85692
V7    V   0.30595  0.60550  0.14308
V8    V   0.30595  0.85692  0.60550
V9    V   0.39450  0.14308  0.69405
V10   V   0.39450  0.30595  0.14308
V11   V   0.39450  0.69405  0.85692
V12   V   0.39450  0.85692  0.30595
V13   V   0.60550  0.14308  0.30595
V14   V   0.60550  0.30595  0.85692
V15   V   0.60550  0.69405  0.14308
V16   V   0.60550  0.85692  0.69405
V17   V   0.69405  0.14308  0.60550
V18   V   0.69405  0.39450  0.14308
V19   V   0.69405  0.60550  0.85692
V20   V   0.69405  0.85692  0.39450
V21   V   0.85692  0.30595  0.39450
V22   V   0.85692  0.39450  0.69405
V23   V   0.85692  0.60550  0.30595
V24   V   0.85692  0.69405  0.60550
E1    E   0.00000  0.35022  0.35022
E2    E   0.00000  0.35022  0.64978
E3    E   0.00000  0.64978  0.35022
E4    E   0.00000  0.64978  0.64978
E5    E   0.14308  0.35022  0.45573
E6    E   0.14308  0.45573  0.64978
E7    E   0.14308  0.54427  0.35022
E8    E   0.14308  0.64978  0.54427
E9    E   0.22452  0.22452  0.50000
E10   E   0.22452  0.26879  0.35022
E11   E   0.22452  0.35022  0.73121
E12   E   0.22452  0.50000  0.22452
E13   E   0.22452  0.50000  0.77548
E14   E   0.22452  0.64978  0.26879
E15   E   0.22452  0.73121  0.64978
E16   E   0.22452  0.77548  0.50000
E17   E   0.26879  0.22452  0.64978
E18   E   0.26879  0.35022  0.22452
E19   E   0.26879  0.64978  0.77548
E20   E   0.26879  0.77548  0.35022
E21   E   0.35022  0.00000  0.35022
E22   E   0.35022  0.00000  0.64978
E23   E   0.35022  0.14308  0.54427
E24   E   0.35022  0.22452  0.26879
E25   E   0.35022  0.26879  0.77548
E26   E   0.35022  0.35022  0.00000
E27   E   0.35022  0.45573  0.14308
E28   E   0.35022  0.54427  0.85692
E29   E   0.35022  0.64978  0.00000
E30   E   0.35022  0.73121  0.22452
E31   E   0.35022  0.77548  0.73121
E32   E   0.35022  0.85692  0.45573
E33   E   0.45573  0.14308  0.35022
E34   E   0.45573  0.35022  0.85692
E35   E   0.45573  0.64978  0.14308
E36   E   0.45573  0.85692  0.64978
E37   E   0.50000  0.22452  0.22452
E38   E   0.50000  0.22452  0.77548
E39   E   0.50000  0.77548  0.22452
E40   E   0.50000  0.77548  0.77548
E41   E   0.54427  0.14308  0.64978
E42   E   0.54427  0.35022  0.14308
E43   E   0.54427  0.64978  0.85692
E44   E   0.54427  0.85692  0.35022
E45   E   0.64978  0.00000  0.35022
E46   E   0.64978  0.00000  0.64978
E47   E   0.64978  0.14308  0.45573
E48   E   0.64978  0.22452  0.73121
E49   E   0.64978  0.26879  0.22452
E50   E   0.64978  0.35022  0.00000
E51   E   0.64978  0.45573  0.85692
E52   E   0.64978  0.54427  0.14308
E53   E   0.64978  0.64978  0.00000
E54   E   0.64978  0.73121  0.77548
E55   E   0.64978  0.77548  0.26879
E56   E   0.64978  0.85692  0.54427
E57   E   0.73121  0.22452  0.35022
E58   E   0.73121  0.35022  0.77548
E59   E   0.73121  0.64978  0.22452
E60   E   0.73121  0.77548  0.64978
E61   E   0.77548  0.22452  0.50000
E62   E   0.77548  0.26879  0.64978
E63   E   0.77548  0.35022  0.26879
E64   E   0.77548  0.50000  0.22452
E65   E   0.77548  0.50000  0.77548
E66   E   0.77548  0.64978  0.73121
E67   E   0.77548  0.73121  0.35022
E68   E   0.77548  0.77548  0.50000
E69   E   0.85692  0.35022  0.54427
E70   E   0.85692  0.45573  0.35022
E71   E   0.85692  0.54427  0.64978
E72   E   0.85692  0.64978  0.45573
loop_
