data_soe_Pnna  hall_number: 245, V_con: 5
_audit_creation_date              2025-03-05
_audit_creation_method            'MOFbuilder_1.0'
_symmetry_space_group_name_H-M    'P1'
_symmetry_Int_Tables_number       1
_symmetry_cell_setting            triclinic
loop_
_symmetry_equiv_pos_as_xyz
  x,y,z
_cell_length_a                    34.0377
_cell_length_b                    29.2504
_cell_length_c                    10.0
_cell_angle_alpha                 90.0
_cell_angle_beta                  90.0
_cell_angle_gamma                 90.0
loop_
_atom_site_label
_atom_site_type_symbol
_atom_site_fract_x
_atom_site_fract_y
_atom_site_fract_z
V1    V   0.12233  0.08455  0.12432
V2    V   0.12233  0.41545  0.37568
V3    V   0.37767  0.58455  0.37568
V4    V   0.37767  0.91545  0.12432
V5    V   0.62233  0.08455  0.87568
V6    V   0.62233  0.41545  0.62432
V7    V   0.87767  0.58455  0.62432
V8    V   0.87767  0.91545  0.87568
E1    E   0.00000  0.00000  0.00000
E2    E   0.00000  0.50000  0.50000
E3    E   0.12233  0.08455  0.62432
E4    E   0.12233  0.25000  0.25000
E5    E   0.12233  0.41545  0.87568
E6    E   0.25000  0.00000  0.12432
E7    E   0.25000  0.50000  0.37568
E8    E   0.37767  0.58455  0.87568
E9    E   0.37767  0.75000  0.25000
E10   E   0.37767  0.91545  0.62432
E11   E   0.50000  0.00000  0.00000
E12   E   0.50000  0.50000  0.50000
E13   E   0.62233  0.08455  0.37568
E14   E   0.62233  0.25000  0.75000
E15   E   0.62233  0.41545  0.12432
E16   E   0.75000  0.00000  0.87568
E17   E   0.75000  0.50000  0.62432
E18   E   0.87767  0.58455  0.12432
E19   E   0.87767  0.75000  0.75000
E20   E   0.87767  0.91545  0.37568
loop_
