data_sog_Fddd:2  hall_number: 336, V_con: 5
_audit_creation_date              2025-03-05
_audit_creation_method            'MOFbuilder_1.0'
_symmetry_space_group_name_H-M    'P1'
_symmetry_Int_Tables_number       1
_symmetry_cell_setting            triclinic
loop_
_symmetry_equiv_pos_as_xyz
  x,y,z
_cell_length_a                    63.418
_cell_length_b                    10.0
_cell_length_c                    66.1998
_cell_angle_alpha                 90.0
_cell_angle_beta                  90.0
_cell_angle_gamma                 90.0
loop_
_atom_site_label
_atom_site_type_symbol
_atom_site_fract_x
_atom_site_fract_y
_atom_site_fract_z
V1    V   0.05439  0.34739  0.95041
V2    V   0.05439  0.40261  0.79959
V3    V   0.05439  0.84739  0.45041
V4    V   0.05439  0.90261  0.29959
V5    V   0.19561  0.34739  0.29959
V6    V   0.19561  0.40261  0.45041
V7    V   0.19561  0.84739  0.79959
V8    V   0.19561  0.90261  0.95041
V9    V   0.30439  0.09739  0.54959
V10   V   0.30439  0.15261  0.70041
V11   V   0.30439  0.59739  0.04959
V12   V   0.30439  0.65261  0.20041
V13   V   0.44561  0.09739  0.20041
V14   V   0.44561  0.15261  0.04959
V15   V   0.44561  0.59739  0.70041
V16   V   0.44561  0.65261  0.54959
V17   V   0.55439  0.34739  0.45041
V18   V   0.55439  0.40261  0.29959
V19   V   0.55439  0.84739  0.95041
V20   V   0.55439  0.90261  0.79959
V21   V   0.69561  0.34739  0.79959
V22   V   0.69561  0.40261  0.95041
V23   V   0.69561  0.84739  0.29959
V24   V   0.69561  0.90261  0.45041
V25   V   0.80439  0.09739  0.04959
V26   V   0.80439  0.15261  0.20041
V27   V   0.80439  0.59739  0.54959
V28   V   0.80439  0.65261  0.70041
V29   V   0.94561  0.09739  0.70041
V30   V   0.94561  0.15261  0.54959
V31   V   0.94561  0.59739  0.20041
V32   V   0.94561  0.65261  0.04959
E1    E   0.00000  0.00000  0.50000
E2    E   0.00000  0.25000  0.75000
E3    E   0.00000  0.50000  0.00000
E4    E   0.00000  0.75000  0.25000
E5    E   0.05439  0.34739  0.45041
E6    E   0.05439  0.37500  0.87500
E7    E   0.05439  0.40261  0.29959
E8    E   0.05439  0.84739  0.95041
E9    E   0.05439  0.87500  0.37500
E10   E   0.05439  0.90261  0.79959
E11   E   0.12500  0.12500  0.29959
E12   E   0.12500  0.12500  0.95041
E13   E   0.12500  0.62500  0.45041
E14   E   0.12500  0.62500  0.79959
E15   E   0.19561  0.34739  0.79959
E16   E   0.19561  0.37500  0.37500
E17   E   0.19561  0.40261  0.95041
E18   E   0.19561  0.84739  0.29959
E19   E   0.19561  0.87500  0.87500
E20   E   0.19561  0.90261  0.45041
E21   E   0.25000  0.00000  0.75000
E22   E   0.25000  0.25000  0.50000
E23   E   0.25000  0.50000  0.25000
E24   E   0.25000  0.75000  0.00000
E25   E   0.30439  0.09739  0.04959
E26   E   0.30439  0.12500  0.62500
E27   E   0.30439  0.15261  0.20041
E28   E   0.30439  0.59739  0.54959
E29   E   0.30439  0.62500  0.12500
E30   E   0.30439  0.65261  0.70041
E31   E   0.37500  0.37500  0.04959
E32   E   0.37500  0.37500  0.70041
E33   E   0.37500  0.87500  0.20041
E34   E   0.37500  0.87500  0.54959
E35   E   0.44561  0.09739  0.70041
E36   E   0.44561  0.12500  0.12500
E37   E   0.44561  0.15261  0.54959
E38   E   0.44561  0.59739  0.20041
E39   E   0.44561  0.62500  0.62500
E40   E   0.44561  0.65261  0.04959
E41   E   0.50000  0.00000  0.00000
E42   E   0.50000  0.25000  0.25000
E43   E   0.50000  0.50000  0.50000
E44   E   0.50000  0.75000  0.75000
E45   E   0.55439  0.34739  0.95041
E46   E   0.55439  0.37500  0.37500
E47   E   0.55439  0.40261  0.79959
E48   E   0.55439  0.84739  0.45041
E49   E   0.55439  0.87500  0.87500
E50   E   0.55439  0.90261  0.29959
E51   E   0.62500  0.12500  0.45041
E52   E   0.62500  0.12500  0.79959
E53   E   0.62500  0.62500  0.29959
E54   E   0.62500  0.62500  0.95041
E55   E   0.69561  0.34739  0.29959
E56   E   0.69561  0.37500  0.87500
E57   E   0.69561  0.40261  0.45041
E58   E   0.69561  0.84739  0.79959
E59   E   0.69561  0.87500  0.37500
E60   E   0.69561  0.90261  0.95041
E61   E   0.75000  0.00000  0.25000
E62   E   0.75000  0.25000  0.00000
E63   E   0.75000  0.50000  0.75000
E64   E   0.75000  0.75000  0.50000
E65   E   0.80439  0.09739  0.54959
E66   E   0.80439  0.12500  0.12500
E67   E   0.80439  0.15261  0.70041
E68   E   0.80439  0.59739  0.04959
E69   E   0.80439  0.62500  0.62500
E70   E   0.80439  0.65261  0.20041
E71   E   0.87500  0.37500  0.20041
E72   E   0.87500  0.37500  0.54959
E73   E   0.87500  0.87500  0.04959
E74   E   0.87500  0.87500  0.70041
E75   E   0.94561  0.09739  0.20041
E76   E   0.94561  0.12500  0.62500
E77   E   0.94561  0.15261  0.04959
E78   E   0.94561  0.59739  0.70041
E79   E   0.94561  0.62500  0.12500
E80   E   0.94561  0.65261  0.54959
loop_
