data_soi_Ibca  hall_number: 341, V_con: 5
_audit_creation_date              2025-03-05
_audit_creation_method            'MOFbuilder_1.0'
_symmetry_space_group_name_H-M    'P1'
_symmetry_Int_Tables_number       1
_symmetry_cell_setting            triclinic
loop_
_symmetry_equiv_pos_as_xyz
  x,y,z
_cell_length_a                    27.5154
_cell_length_b                    17.8185
_cell_length_c                    35.1063
_cell_angle_alpha                 90.0
_cell_angle_beta                  90.0
_cell_angle_gamma                 90.0
loop_
_atom_site_label
_atom_site_type_symbol
_atom_site_fract_x
_atom_site_fract_y
_atom_site_fract_z
V1    V   0.16747  0.14110  0.87311
V2    V   0.16747  0.35890  0.37311
V3    V   0.16747  0.64110  0.12689
V4    V   0.16747  0.85890  0.62689
V5    V   0.33253  0.14110  0.12689
V6    V   0.33253  0.35890  0.62689
V7    V   0.33253  0.64110  0.87311
V8    V   0.33253  0.85890  0.37311
V9    V   0.66747  0.14110  0.62689
V10   V   0.66747  0.35890  0.12689
V11   V   0.66747  0.64110  0.37311
V12   V   0.66747  0.85890  0.87311
V13   V   0.83253  0.14110  0.37311
V14   V   0.83253  0.35890  0.87311
V15   V   0.83253  0.64110  0.62689
V16   V   0.83253  0.85890  0.12689
E1    E   0.00000  0.25000  0.37311
E2    E   0.00000  0.25000  0.87311
E3    E   0.00000  0.75000  0.12689
E4    E   0.00000  0.75000  0.62689
E5    E   0.16747  0.00000  0.75000
E6    E   0.16747  0.50000  0.25000
E7    E   0.25000  0.10890  0.37311
E8    E   0.25000  0.10890  0.62689
E9    E   0.25000  0.14110  0.00000
E10   E   0.25000  0.35890  0.50000
E11   E   0.25000  0.39110  0.12689
E12   E   0.25000  0.39110  0.87311
E13   E   0.25000  0.60890  0.37311
E14   E   0.25000  0.60890  0.62689
E15   E   0.25000  0.64110  0.00000
E16   E   0.25000  0.85890  0.50000
E17   E   0.25000  0.89110  0.12689
E18   E   0.25000  0.89110  0.87311
E19   E   0.33253  0.00000  0.25000
E20   E   0.33253  0.50000  0.75000
E21   E   0.50000  0.25000  0.12689
E22   E   0.50000  0.25000  0.62689
E23   E   0.50000  0.75000  0.37311
E24   E   0.50000  0.75000  0.87311
E25   E   0.66747  0.00000  0.75000
E26   E   0.66747  0.50000  0.25000
E27   E   0.75000  0.10890  0.12689
E28   E   0.75000  0.10890  0.87311
E29   E   0.75000  0.14110  0.50000
E30   E   0.75000  0.35890  0.00000
E31   E   0.75000  0.39110  0.37311
E32   E   0.75000  0.39110  0.62689
E33   E   0.75000  0.60890  0.12689
E34   E   0.75000  0.60890  0.87311
E35   E   0.75000  0.64110  0.50000
E36   E   0.75000  0.85890  0.00000
E37   E   0.75000  0.89110  0.37311
E38   E   0.75000  0.89110  0.62689
E39   E   0.83253  0.00000  0.25000
E40   E   0.83253  0.50000  0.75000
loop_
