data_sok_Fddd:2  hall_number: 336, V_con: 6
_audit_creation_date              2025-03-05
_audit_creation_method            'MOFbuilder_1.0'
_symmetry_space_group_name_H-M    'P1'
_symmetry_Int_Tables_number       1
_symmetry_cell_setting            triclinic
loop_
_symmetry_equiv_pos_as_xyz
  x,y,z
_cell_length_a                    66.5956
_cell_length_b                    62.7957
_cell_length_c                    10.0
_cell_angle_alpha                 90.0
_cell_angle_beta                  90.0
_cell_angle_gamma                 90.0
loop_
_atom_site_label
_atom_site_type_symbol
_atom_site_fract_x
_atom_site_fract_y
_atom_site_fract_z
V1    V   0.04992  0.30604  0.62501
V2    V   0.04992  0.44396  0.12499
V3    V   0.04992  0.80604  0.12501
V4    V   0.04992  0.94396  0.62499
V5    V   0.20008  0.30604  0.62499
V6    V   0.20008  0.44396  0.12501
V7    V   0.20008  0.80604  0.12499
V8    V   0.20008  0.94396  0.62501
V9    V   0.29992  0.05604  0.87499
V10   V   0.29992  0.19396  0.37501
V11   V   0.29992  0.55604  0.37499
V12   V   0.29992  0.69396  0.87501
V13   V   0.45008  0.05604  0.87501
V14   V   0.45008  0.19396  0.37499
V15   V   0.45008  0.55604  0.37501
V16   V   0.45008  0.69396  0.87499
V17   V   0.54992  0.30604  0.12501
V18   V   0.54992  0.44396  0.62499
V19   V   0.54992  0.80604  0.62501
V20   V   0.54992  0.94396  0.12499
V21   V   0.70008  0.30604  0.12499
V22   V   0.70008  0.44396  0.62501
V23   V   0.70008  0.80604  0.62499
V24   V   0.70008  0.94396  0.12501
V25   V   0.79992  0.05604  0.37499
V26   V   0.79992  0.19396  0.87501
V27   V   0.79992  0.55604  0.87499
V28   V   0.79992  0.69396  0.37501
V29   V   0.95008  0.05604  0.37501
V30   V   0.95008  0.19396  0.87499
V31   V   0.95008  0.55604  0.87501
V32   V   0.95008  0.69396  0.37499
E1    E   0.00000  0.00000  0.50000
E2    E   0.00000  0.25000  0.75000
E3    E   0.00000  0.50000  0.00000
E4    E   0.00000  0.75000  0.25000
E5    E   0.04992  0.30604  0.12501
E6    E   0.04992  0.37500  0.37500
E7    E   0.04992  0.37500  0.87500
E8    E   0.04992  0.44396  0.62499
E9    E   0.04992  0.80604  0.62501
E10   E   0.04992  0.87500  0.37500
E11   E   0.04992  0.87500  0.87500
E12   E   0.04992  0.94396  0.12499
E13   E   0.12500  0.30604  0.62500
E14   E   0.12500  0.44396  0.12500
E15   E   0.12500  0.80604  0.12500
E16   E   0.12500  0.94396  0.62500
E17   E   0.20008  0.30604  0.12499
E18   E   0.20008  0.37500  0.37500
E19   E   0.20008  0.37500  0.87500
E20   E   0.20008  0.44396  0.62501
E21   E   0.20008  0.80604  0.62499
E22   E   0.20008  0.87500  0.37500
E23   E   0.20008  0.87500  0.87500
E24   E   0.20008  0.94396  0.12501
E25   E   0.25000  0.00000  0.75000
E26   E   0.25000  0.25000  0.50000
E27   E   0.25000  0.50000  0.25000
E28   E   0.25000  0.75000  0.00000
E29   E   0.29992  0.05604  0.37499
E30   E   0.29992  0.12500  0.12500
E31   E   0.29992  0.12500  0.62500
E32   E   0.29992  0.19396  0.87501
E33   E   0.29992  0.55604  0.87499
E34   E   0.29992  0.62500  0.12500
E35   E   0.29992  0.62500  0.62500
E36   E   0.29992  0.69396  0.37501
E37   E   0.37500  0.05604  0.87500
E38   E   0.37500  0.19396  0.37500
E39   E   0.37500  0.55604  0.37500
E40   E   0.37500  0.69396  0.87500
E41   E   0.45008  0.05604  0.37501
E42   E   0.45008  0.12500  0.12500
E43   E   0.45008  0.12500  0.62500
E44   E   0.45008  0.19396  0.87499
E45   E   0.45008  0.55604  0.87501
E46   E   0.45008  0.62500  0.12500
E47   E   0.45008  0.62500  0.62500
E48   E   0.45008  0.69396  0.37499
E49   E   0.50000  0.00000  0.00000
E50   E   0.50000  0.25000  0.25000
E51   E   0.50000  0.50000  0.50000
E52   E   0.50000  0.75000  0.75000
E53   E   0.54992  0.30604  0.62501
E54   E   0.54992  0.37500  0.37500
E55   E   0.54992  0.37500  0.87500
E56   E   0.54992  0.44396  0.12499
E57   E   0.54992  0.80604  0.12501
E58   E   0.54992  0.87500  0.37500
E59   E   0.54992  0.87500  0.87500
E60   E   0.54992  0.94396  0.62499
E61   E   0.62500  0.30604  0.12500
E62   E   0.62500  0.44396  0.62500
E63   E   0.62500  0.80604  0.62500
E64   E   0.62500  0.94396  0.12500
E65   E   0.70008  0.30604  0.62499
E66   E   0.70008  0.37500  0.37500
E67   E   0.70008  0.37500  0.87500
E68   E   0.70008  0.44396  0.12501
E69   E   0.70008  0.80604  0.12499
E70   E   0.70008  0.87500  0.37500
E71   E   0.70008  0.87500  0.87500
E72   E   0.70008  0.94396  0.62501
E73   E   0.75000  0.00000  0.25000
E74   E   0.75000  0.25000  0.00000
E75   E   0.75000  0.50000  0.75000
E76   E   0.75000  0.75000  0.50000
E77   E   0.79992  0.05604  0.87499
E78   E   0.79992  0.12500  0.12500
E79   E   0.79992  0.12500  0.62500
E80   E   0.79992  0.19396  0.37501
E81   E   0.79992  0.55604  0.37499
E82   E   0.79992  0.62500  0.12500
E83   E   0.79992  0.62500  0.62500
E84   E   0.79992  0.69396  0.87501
E85   E   0.87500  0.05604  0.37500
E86   E   0.87500  0.19396  0.87500
E87   E   0.87500  0.55604  0.87500
E88   E   0.87500  0.69396  0.37500
E89   E   0.95008  0.05604  0.87501
E90   E   0.95008  0.12500  0.12500
E91   E   0.95008  0.12500  0.62500
E92   E   0.95008  0.19396  0.37499
E93   E   0.95008  0.55604  0.37501
E94   E   0.95008  0.62500  0.12500
E95   E   0.95008  0.62500  0.62500
E96   E   0.95008  0.69396  0.87499
loop_
