data_son_Fddd:2  hall_number: 336, V_con: 6
_audit_creation_date              2025-03-05
_audit_creation_method            'MOFbuilder_1.0'
_symmetry_space_group_name_H-M    'P1'
_symmetry_Int_Tables_number       1
_symmetry_cell_setting            triclinic
loop_
_symmetry_equiv_pos_as_xyz
  x,y,z
_cell_length_a                    73.9948
_cell_length_b                    38.626
_cell_length_c                    10.0
_cell_angle_alpha                 90.0
_cell_angle_beta                  90.0
_cell_angle_gamma                 90.0
loop_
_atom_site_label
_atom_site_type_symbol
_atom_site_fract_x
_atom_site_fract_y
_atom_site_fract_z
V1    V   0.06095  0.00230  0.78429
V2    V   0.06095  0.24770  0.46571
V3    V   0.06095  0.50230  0.28429
V4    V   0.06095  0.74770  0.96571
V5    V   0.18905  0.00230  0.46571
V6    V   0.18905  0.24770  0.78429
V7    V   0.18905  0.50230  0.96571
V8    V   0.18905  0.74770  0.28429
V9    V   0.31095  0.25230  0.21571
V10   V   0.31095  0.49770  0.53429
V11   V   0.31095  0.75230  0.71571
V12   V   0.31095  0.99770  0.03429
V13   V   0.43905  0.25230  0.53429
V14   V   0.43905  0.49770  0.21571
V15   V   0.43905  0.75230  0.03429
V16   V   0.43905  0.99770  0.71571
V17   V   0.56095  0.00230  0.28429
V18   V   0.56095  0.24770  0.96571
V19   V   0.56095  0.50230  0.78429
V20   V   0.56095  0.74770  0.46571
V21   V   0.68905  0.00230  0.96571
V22   V   0.68905  0.24770  0.28429
V23   V   0.68905  0.50230  0.46571
V24   V   0.68905  0.74770  0.78429
V25   V   0.81095  0.25230  0.71571
V26   V   0.81095  0.49770  0.03429
V27   V   0.81095  0.75230  0.21571
V28   V   0.81095  0.99770  0.53429
V29   V   0.93905  0.25230  0.03429
V30   V   0.93905  0.49770  0.71571
V31   V   0.93905  0.75230  0.53429
V32   V   0.93905  0.99770  0.21571
E1    E   0.00000  0.00000  0.00000
E2    E   0.00000  0.25000  0.25000
E3    E   0.00000  0.50000  0.50000
E4    E   0.00000  0.75000  0.75000
E5    E   0.06095  0.00230  0.28429
E6    E   0.06095  0.12500  0.62500
E7    E   0.06095  0.24770  0.96571
E8    E   0.06095  0.37500  0.37500
E9    E   0.06095  0.50230  0.78429
E10   E   0.06095  0.62500  0.12500
E11   E   0.06095  0.74770  0.46571
E12   E   0.06095  0.87500  0.87500
E13   E   0.12500  0.00230  0.62500
E14   E   0.12500  0.24770  0.62500
E15   E   0.12500  0.50230  0.12500
E16   E   0.12500  0.74770  0.12500
E17   E   0.18905  0.00230  0.96571
E18   E   0.18905  0.12500  0.62500
E19   E   0.18905  0.24770  0.28429
E20   E   0.18905  0.37500  0.87500
E21   E   0.18905  0.50230  0.46571
E22   E   0.18905  0.62500  0.12500
E23   E   0.18905  0.74770  0.78429
E24   E   0.18905  0.87500  0.37500
E25   E   0.25000  0.00000  0.25000
E26   E   0.25000  0.25000  0.00000
E27   E   0.25000  0.50000  0.75000
E28   E   0.25000  0.75000  0.50000
E29   E   0.31095  0.12500  0.12500
E30   E   0.31095  0.25230  0.71571
E31   E   0.31095  0.37500  0.37500
E32   E   0.31095  0.49770  0.03429
E33   E   0.31095  0.62500  0.62500
E34   E   0.31095  0.75230  0.21571
E35   E   0.31095  0.87500  0.87500
E36   E   0.31095  0.99770  0.53429
E37   E   0.37500  0.25230  0.37500
E38   E   0.37500  0.49770  0.37500
E39   E   0.37500  0.75230  0.87500
E40   E   0.37500  0.99770  0.87500
E41   E   0.43905  0.12500  0.62500
E42   E   0.43905  0.25230  0.03429
E43   E   0.43905  0.37500  0.37500
E44   E   0.43905  0.49770  0.71571
E45   E   0.43905  0.62500  0.12500
E46   E   0.43905  0.75230  0.53429
E47   E   0.43905  0.87500  0.87500
E48   E   0.43905  0.99770  0.21571
E49   E   0.50000  0.00000  0.50000
E50   E   0.50000  0.25000  0.75000
E51   E   0.50000  0.50000  0.00000
E52   E   0.50000  0.75000  0.25000
E53   E   0.56095  0.00230  0.78429
E54   E   0.56095  0.12500  0.12500
E55   E   0.56095  0.24770  0.46571
E56   E   0.56095  0.37500  0.87500
E57   E   0.56095  0.50230  0.28429
E58   E   0.56095  0.62500  0.62500
E59   E   0.56095  0.74770  0.96571
E60   E   0.56095  0.87500  0.37500
E61   E   0.62500  0.00230  0.12500
E62   E   0.62500  0.24770  0.12500
E63   E   0.62500  0.50230  0.62500
E64   E   0.62500  0.74770  0.62500
E65   E   0.68905  0.00230  0.46571
E66   E   0.68905  0.12500  0.12500
E67   E   0.68905  0.24770  0.78429
E68   E   0.68905  0.37500  0.37500
E69   E   0.68905  0.50230  0.96571
E70   E   0.68905  0.62500  0.62500
E71   E   0.68905  0.74770  0.28429
E72   E   0.68905  0.87500  0.87500
E73   E   0.75000  0.00000  0.75000
E74   E   0.75000  0.25000  0.50000
E75   E   0.75000  0.50000  0.25000
E76   E   0.75000  0.75000  0.00000
E77   E   0.81095  0.12500  0.62500
E78   E   0.81095  0.25230  0.21571
E79   E   0.81095  0.37500  0.87500
E80   E   0.81095  0.49770  0.53429
E81   E   0.81095  0.62500  0.12500
E82   E   0.81095  0.75230  0.71571
E83   E   0.81095  0.87500  0.37500
E84   E   0.81095  0.99770  0.03429
E85   E   0.87500  0.25230  0.87500
E86   E   0.87500  0.49770  0.87500
E87   E   0.87500  0.75230  0.37500
E88   E   0.87500  0.99770  0.37500
E89   E   0.93905  0.12500  0.12500
E90   E   0.93905  0.25230  0.53429
E91   E   0.93905  0.37500  0.87500
E92   E   0.93905  0.49770  0.21571
E93   E   0.93905  0.62500  0.62500
E94   E   0.93905  0.75230  0.03429
E95   E   0.93905  0.87500  0.37500
E96   E   0.93905  0.99770  0.71571
loop_
