data_soo_Fddd:2  hall_number: 336, V_con: 7
_audit_creation_date              2025-03-05
_audit_creation_method            'MOFbuilder_1.0'
_symmetry_space_group_name_H-M    'P1'
_symmetry_Int_Tables_number       1
_symmetry_cell_setting            triclinic
loop_
_symmetry_equiv_pos_as_xyz
  x,y,z
_cell_length_a                    78.6371
_cell_length_b                    37.3202
_cell_length_c                    10.0001
_cell_angle_alpha                 90.0
_cell_angle_beta                  90.0
_cell_angle_gamma                 90.0
loop_
_atom_site_label
_atom_site_type_symbol
_atom_site_fract_x
_atom_site_fract_y
_atom_site_fract_z
V1    V   0.06142  0.25897  0.62500
V2    V   0.06142  0.49103  0.12500
V3    V   0.06142  0.75897  0.12500
V4    V   0.06142  0.99103  0.62500
V5    V   0.18858  0.25897  0.62500
V6    V   0.18858  0.49103  0.12500
V7    V   0.18858  0.75897  0.12500
V8    V   0.18858  0.99103  0.62500
V9    V   0.31142  0.00897  0.87500
V10   V   0.31142  0.24103  0.37500
V11   V   0.31142  0.50897  0.37500
V12   V   0.31142  0.74103  0.87500
V13   V   0.43858  0.00897  0.87500
V14   V   0.43858  0.24103  0.37500
V15   V   0.43858  0.50897  0.37500
V16   V   0.43858  0.74103  0.87500
V17   V   0.56142  0.25897  0.12500
V18   V   0.56142  0.49103  0.62500
V19   V   0.56142  0.75897  0.62500
V20   V   0.56142  0.99103  0.12500
V21   V   0.68858  0.25897  0.12500
V22   V   0.68858  0.49103  0.62500
V23   V   0.68858  0.75897  0.62500
V24   V   0.68858  0.99103  0.12500
V25   V   0.81142  0.00897  0.37500
V26   V   0.81142  0.24103  0.87500
V27   V   0.81142  0.50897  0.87500
V28   V   0.81142  0.74103  0.37500
V29   V   0.93858  0.00897  0.37500
V30   V   0.93858  0.24103  0.87500
V31   V   0.93858  0.50897  0.87500
V32   V   0.93858  0.74103  0.37500
E1    E   0.00000  0.00000  0.50000
E2    E   0.00000  0.25000  0.75000
E3    E   0.00000  0.50000  0.00000
E4    E   0.00000  0.75000  0.25000
E5    E   0.06142  0.12500  0.62500
E6    E   0.06142  0.25897  0.12500
E7    E   0.06142  0.37500  0.37500
E8    E   0.06142  0.37500  0.87500
E9    E   0.06142  0.49103  0.62500
E10   E   0.06142  0.62500  0.12500
E11   E   0.06142  0.75897  0.62500
E12   E   0.06142  0.87500  0.37500
E13   E   0.06142  0.87500  0.87500
E14   E   0.06142  0.99103  0.12500
E15   E   0.12500  0.25897  0.62500
E16   E   0.12500  0.49103  0.12500
E17   E   0.12500  0.75897  0.12500
E18   E   0.12500  0.99103  0.62500
E19   E   0.18858  0.12500  0.62500
E20   E   0.18858  0.25897  0.12500
E21   E   0.18858  0.37500  0.37500
E22   E   0.18858  0.37500  0.87500
E23   E   0.18858  0.49103  0.62500
E24   E   0.18858  0.62500  0.12500
E25   E   0.18858  0.75897  0.62500
E26   E   0.18858  0.87500  0.37500
E27   E   0.18858  0.87500  0.87500
E28   E   0.18858  0.99103  0.12500
E29   E   0.25000  0.00000  0.75000
E30   E   0.25000  0.25000  0.50000
E31   E   0.25000  0.50000  0.25000
E32   E   0.25000  0.75000  0.00000
E33   E   0.31142  0.00897  0.37500
E34   E   0.31142  0.12500  0.12500
E35   E   0.31142  0.12500  0.62500
E36   E   0.31142  0.24103  0.87500
E37   E   0.31142  0.37500  0.37500
E38   E   0.31142  0.50897  0.87500
E39   E   0.31142  0.62500  0.12500
E40   E   0.31142  0.62500  0.62500
E41   E   0.31142  0.74103  0.37500
E42   E   0.31142  0.87500  0.87500
E43   E   0.37500  0.00897  0.87500
E44   E   0.37500  0.24103  0.37500
E45   E   0.37500  0.50897  0.37500
E46   E   0.37500  0.74103  0.87500
E47   E   0.43858  0.00897  0.37500
E48   E   0.43858  0.12500  0.12500
E49   E   0.43858  0.12500  0.62500
E50   E   0.43858  0.24103  0.87500
E51   E   0.43858  0.37500  0.37500
E52   E   0.43858  0.50897  0.87500
E53   E   0.43858  0.62500  0.12500
E54   E   0.43858  0.62500  0.62500
E55   E   0.43858  0.74103  0.37500
E56   E   0.43858  0.87500  0.87500
E57   E   0.50000  0.00000  0.00000
E58   E   0.50000  0.25000  0.25000
E59   E   0.50000  0.50000  0.50000
E60   E   0.50000  0.75000  0.75000
E61   E   0.56142  0.12500  0.12500
E62   E   0.56142  0.25897  0.62500
E63   E   0.56142  0.37500  0.37500
E64   E   0.56142  0.37500  0.87500
E65   E   0.56142  0.49103  0.12500
E66   E   0.56142  0.62500  0.62500
E67   E   0.56142  0.75897  0.12500
E68   E   0.56142  0.87500  0.37500
E69   E   0.56142  0.87500  0.87500
E70   E   0.56142  0.99103  0.62500
E71   E   0.62500  0.25897  0.12500
E72   E   0.62500  0.49103  0.62500
E73   E   0.62500  0.75897  0.62500
E74   E   0.62500  0.99103  0.12500
E75   E   0.68858  0.12500  0.12500
E76   E   0.68858  0.25897  0.62500
E77   E   0.68858  0.37500  0.37500
E78   E   0.68858  0.37500  0.87500
E79   E   0.68858  0.49103  0.12500
E80   E   0.68858  0.62500  0.62500
E81   E   0.68858  0.75897  0.12500
E82   E   0.68858  0.87500  0.37500
E83   E   0.68858  0.87500  0.87500
E84   E   0.68858  0.99103  0.62500
E85   E   0.75000  0.00000  0.25000
E86   E   0.75000  0.25000  0.00000
E87   E   0.75000  0.50000  0.75000
E88   E   0.75000  0.75000  0.50000
E89   E   0.81142  0.00897  0.87500
E90   E   0.81142  0.12500  0.12500
E91   E   0.81142  0.12500  0.62500
E92   E   0.81142  0.24103  0.37500
E93   E   0.81142  0.37500  0.87500
E94   E   0.81142  0.50897  0.37500
E95   E   0.81142  0.62500  0.12500
E96   E   0.81142  0.62500  0.62500
E97   E   0.81142  0.74103  0.87500
E98   E   0.81142  0.87500  0.37500
E99   E   0.87500  0.00897  0.37500
E100  E   0.87500  0.24103  0.87500
E101  E   0.87500  0.50897  0.87500
E102  E   0.87500  0.74103  0.37500
E103  E   0.93858  0.00897  0.87500
E104  E   0.93858  0.12500  0.12500
E105  E   0.93858  0.12500  0.62500
E106  E   0.93858  0.24103  0.37500
E107  E   0.93858  0.37500  0.87500
E108  E   0.93858  0.50897  0.37500
E109  E   0.93858  0.62500  0.12500
E110  E   0.93858  0.62500  0.62500
E111  E   0.93858  0.74103  0.87500
E112  E   0.93858  0.87500  0.37500
loop_
