data_sos_Pccn  hall_number: 266, V_con: 8
_audit_creation_date              2025-03-05
_audit_creation_method            'MOFbuilder_1.0'
_symmetry_space_group_name_H-M    'P1'
_symmetry_Int_Tables_number       1
_symmetry_cell_setting            triclinic
loop_
_symmetry_equiv_pos_as_xyz
  x,y,z
_cell_length_a                    34.6962
_cell_length_b                    10.0
_cell_length_c                    19.8845
_cell_angle_alpha                 90.0
_cell_angle_beta                  90.0
_cell_angle_gamma                 90.0
loop_
_atom_site_label
_atom_site_type_symbol
_atom_site_fract_x
_atom_site_fract_y
_atom_site_fract_z
V1    V   0.10672  0.69634  0.36289
V2    V   0.10672  0.80366  0.86289
V3    V   0.39328  0.69634  0.86289
V4    V   0.39328  0.80366  0.36289
V5    V   0.60672  0.19634  0.63711
V6    V   0.60672  0.30366  0.13711
V7    V   0.89328  0.19634  0.13711
V8    V   0.89328  0.30366  0.63711
E1    E   0.00000  0.00000  0.00000
E2    E   0.00000  0.05366  0.75000
E3    E   0.00000  0.44634  0.25000
E4    E   0.00000  0.50000  0.50000
E5    E   0.00000  0.55366  0.75000
E6    E   0.00000  0.94634  0.25000
E7    E   0.10672  0.19634  0.36289
E8    E   0.10672  0.30366  0.86289
E9    E   0.10672  0.75000  0.11289
E10   E   0.10672  0.75000  0.61289
E11   E   0.25000  0.75000  0.36289
E12   E   0.25000  0.75000  0.86289
E13   E   0.39328  0.19634  0.86289
E14   E   0.39328  0.30366  0.36289
E15   E   0.39328  0.75000  0.11289
E16   E   0.39328  0.75000  0.61289
E17   E   0.50000  0.00000  0.50000
E18   E   0.50000  0.05366  0.25000
E19   E   0.50000  0.44634  0.75000
E20   E   0.50000  0.50000  0.00000
E21   E   0.50000  0.55366  0.25000
E22   E   0.50000  0.94634  0.75000
E23   E   0.60672  0.25000  0.38711
E24   E   0.60672  0.25000  0.88711
E25   E   0.60672  0.69634  0.63711
E26   E   0.60672  0.80366  0.13711
E27   E   0.75000  0.25000  0.13711
E28   E   0.75000  0.25000  0.63711
E29   E   0.89328  0.25000  0.38711
E30   E   0.89328  0.25000  0.88711
E31   E   0.89328  0.69634  0.13711
E32   E   0.89328  0.80366  0.63711
loop_
