data_ssb-a_I4/mmm  hall_number: 424, V_con: 3, EC_con: 3
_audit_creation_date              2025-03-05
_audit_creation_method            'MOFbuilder_1.0'
_symmetry_space_group_name_H-M    'P1'
_symmetry_Int_Tables_number       1
_symmetry_cell_setting            triclinic
loop_
_symmetry_equiv_pos_as_xyz
  x,y,z
_cell_length_a                    77.1044
_cell_length_b                    77.1044
_cell_length_c                    56.7998
_cell_angle_alpha                 90.0
_cell_angle_beta                  90.0
_cell_angle_gamma                 90.0
loop_
_atom_site_label
_atom_site_type_symbol
_atom_site_fract_x
_atom_site_fract_y
_atom_site_fract_z
V1    V   0.06485  0.26158  0.41197
V2    V   0.06485  0.26158  0.58803
V3    V   0.06485  0.73842  0.41197
V4    V   0.06485  0.73842  0.58803
V5    V   0.23842  0.43515  0.08803
V6    V   0.23842  0.43515  0.91197
V7    V   0.23842  0.56485  0.08803
V8    V   0.23842  0.56485  0.91197
V9    V   0.26158  0.06485  0.41197
V10   V   0.26158  0.06485  0.58803
V11   V   0.26158  0.93515  0.41197
V12   V   0.26158  0.93515  0.58803
V13   V   0.43515  0.23842  0.08803
V14   V   0.43515  0.23842  0.91197
V15   V   0.43515  0.76158  0.08803
V16   V   0.43515  0.76158  0.91197
V17   V   0.56485  0.23842  0.08803
V18   V   0.56485  0.23842  0.91197
V19   V   0.56485  0.76158  0.08803
V20   V   0.56485  0.76158  0.91197
V21   V   0.73842  0.06485  0.41197
V22   V   0.73842  0.06485  0.58803
V23   V   0.73842  0.93515  0.41197
V24   V   0.73842  0.93515  0.58803
V25   V   0.76158  0.43515  0.08803
V26   V   0.76158  0.43515  0.91197
V27   V   0.76158  0.56485  0.08803
V28   V   0.76158  0.56485  0.91197
V29   V   0.93515  0.26158  0.41197
V30   V   0.93515  0.26158  0.58803
V31   V   0.93515  0.73842  0.41197
V32   V   0.93515  0.73842  0.58803
EC1    EC   0.17123  0.26294  0.31129
EC2    EC   0.17123  0.26294  0.68871
EC3    EC   0.17123  0.73706  0.31129
EC4    EC   0.17123  0.73706  0.68871
EC5    EC   0.23706  0.32877  0.18871
EC6    EC   0.23706  0.32877  0.81129
EC7    EC   0.23706  0.67123  0.18871
EC8    EC   0.23706  0.67123  0.81129
EC9    EC   0.26294  0.17123  0.31129
EC10   EC   0.26294  0.17123  0.68871
EC11   EC   0.26294  0.82877  0.31129
EC12   EC   0.26294  0.82877  0.68871
EC13   EC   0.32877  0.23706  0.18871
EC14   EC   0.32877  0.23706  0.81129
EC15   EC   0.32877  0.76294  0.18871
EC16   EC   0.32877  0.76294  0.81129
EC17   EC   0.67123  0.23706  0.18871
EC18   EC   0.67123  0.23706  0.81129
EC19   EC   0.67123  0.76294  0.18871
EC20   EC   0.67123  0.76294  0.81129
EC21   EC   0.73706  0.17123  0.31129
EC22   EC   0.73706  0.17123  0.68871
EC23   EC   0.73706  0.82877  0.31129
EC24   EC   0.73706  0.82877  0.68871
EC25   EC   0.76294  0.32877  0.18871
EC26   EC   0.76294  0.32877  0.81129
EC27   EC   0.76294  0.67123  0.18871
EC28   EC   0.76294  0.67123  0.81129
EC29   EC   0.82877  0.26294  0.31129
EC30   EC   0.82877  0.26294  0.68871
EC31   EC   0.82877  0.73706  0.31129
EC32   EC   0.82877  0.73706  0.68871
E1    E   0.00000  0.26158  0.41197
E2    E   0.00000  0.26158  0.58803
E3    E   0.00000  0.73842  0.41197
E4    E   0.00000  0.73842  0.58803
E5    E   0.06485  0.26158  0.50000
E6    E   0.06485  0.73842  0.50000
E7    E   0.11804  0.26226  0.36163
E8    E   0.11804  0.26226  0.63837
E9    E   0.11804  0.73774  0.36163
E10   E   0.11804  0.73774  0.63837
E11   E   0.20415  0.29585  0.25000
E12   E   0.20415  0.29585  0.75000
E13   E   0.20415  0.70415  0.25000
E14   E   0.20415  0.70415  0.75000
E15   E   0.21708  0.21708  0.31129
E16   E   0.21708  0.21708  0.68871
E17   E   0.21708  0.78292  0.31129
E18   E   0.21708  0.78292  0.68871
E19   E   0.23774  0.38196  0.13837
E20   E   0.23774  0.38196  0.86163
E21   E   0.23774  0.61804  0.13837
E22   E   0.23774  0.61804  0.86163
E23   E   0.23842  0.43515  0.00000
E24   E   0.23842  0.50000  0.08803
E25   E   0.23842  0.50000  0.91197
E26   E   0.23842  0.56485  0.00000
E27   E   0.26158  0.00000  0.41197
E28   E   0.26158  0.00000  0.58803
E29   E   0.26158  0.06485  0.50000
E30   E   0.26158  0.93515  0.50000
E31   E   0.26226  0.11804  0.36163
E32   E   0.26226  0.11804  0.63837
E33   E   0.26226  0.88196  0.36163
E34   E   0.26226  0.88196  0.63837
E35   E   0.28292  0.28292  0.18871
E36   E   0.28292  0.28292  0.81129
E37   E   0.28292  0.71708  0.18871
E38   E   0.28292  0.71708  0.81129
E39   E   0.29585  0.20415  0.25000
E40   E   0.29585  0.20415  0.75000
E41   E   0.29585  0.79585  0.25000
E42   E   0.29585  0.79585  0.75000
E43   E   0.38196  0.23774  0.13837
E44   E   0.38196  0.23774  0.86163
E45   E   0.38196  0.76226  0.13837
E46   E   0.38196  0.76226  0.86163
E47   E   0.43515  0.23842  0.00000
E48   E   0.43515  0.76158  0.00000
E49   E   0.50000  0.23842  0.08803
E50   E   0.50000  0.23842  0.91197
E51   E   0.50000  0.76158  0.08803
E52   E   0.50000  0.76158  0.91197
E53   E   0.56485  0.23842  0.00000
E54   E   0.56485  0.76158  0.00000
E55   E   0.61804  0.23774  0.13837
E56   E   0.61804  0.23774  0.86163
E57   E   0.61804  0.76226  0.13837
E58   E   0.61804  0.76226  0.86163
E59   E   0.70415  0.20415  0.25000
E60   E   0.70415  0.20415  0.75000
E61   E   0.70415  0.79585  0.25000
E62   E   0.70415  0.79585  0.75000
E63   E   0.71708  0.28292  0.18871
E64   E   0.71708  0.28292  0.81129
E65   E   0.71708  0.71708  0.18871
E66   E   0.71708  0.71708  0.81129
E67   E   0.73774  0.11804  0.36163
E68   E   0.73774  0.11804  0.63837
E69   E   0.73774  0.88196  0.36163
E70   E   0.73774  0.88196  0.63837
E71   E   0.73842  0.00000  0.41197
E72   E   0.73842  0.00000  0.58803
E73   E   0.73842  0.06485  0.50000
E74   E   0.73842  0.93515  0.50000
E75   E   0.76158  0.43515  0.00000
E76   E   0.76158  0.50000  0.08803
E77   E   0.76158  0.50000  0.91197
E78   E   0.76158  0.56485  0.00000
E79   E   0.76226  0.38196  0.13837
E80   E   0.76226  0.38196  0.86163
E81   E   0.76226  0.61804  0.13837
E82   E   0.76226  0.61804  0.86163
E83   E   0.78292  0.21708  0.31129
E84   E   0.78292  0.21708  0.68871
E85   E   0.78292  0.78292  0.31129
E86   E   0.78292  0.78292  0.68871
E87   E   0.79585  0.29585  0.25000
E88   E   0.79585  0.29585  0.75000
E89   E   0.79585  0.70415  0.25000
E90   E   0.79585  0.70415  0.75000
E91   E   0.88196  0.26226  0.36163
E92   E   0.88196  0.26226  0.63837
E93   E   0.88196  0.73774  0.36163
E94   E   0.88196  0.73774  0.63837
E95   E   0.93515  0.26158  0.50000
E96   E   0.93515  0.73842  0.50000
loop_
