data_sst-a_Im-3m  hall_number: 529, V_con: 3, EC_con: 3
_audit_creation_date              2025-03-05
_audit_creation_method            'MOFbuilder_1.0'
_symmetry_space_group_name_H-M    'P1'
_symmetry_Int_Tables_number       1
_symmetry_cell_setting            triclinic
loop_
_symmetry_equiv_pos_as_xyz
  x,y,z
_cell_length_a                    96.5685
_cell_length_b                    96.5685
_cell_length_c                    96.5685
_cell_angle_alpha                 90.0
_cell_angle_beta                  90.0
_cell_angle_gamma                 90.0
loop_
_atom_site_label
_atom_site_type_symbol
_atom_site_fract_x
_atom_site_fract_y
_atom_site_fract_z
V1    V   0.05178  0.12500  0.37514
V2    V   0.05178  0.12500  0.62486
V3    V   0.05178  0.37514  0.12500
V4    V   0.05178  0.37514  0.87500
V5    V   0.05178  0.62486  0.12500
V6    V   0.05178  0.62486  0.87500
V7    V   0.05178  0.87500  0.37514
V8    V   0.05178  0.87500  0.62486
V9    V   0.12486  0.37500  0.44822
V10   V   0.12486  0.37500  0.55178
V11   V   0.12486  0.44822  0.37500
V12   V   0.12486  0.44822  0.62500
V13   V   0.12486  0.55178  0.37500
V14   V   0.12486  0.55178  0.62500
V15   V   0.12486  0.62500  0.44822
V16   V   0.12486  0.62500  0.55178
V17   V   0.12500  0.05178  0.37514
V18   V   0.12500  0.05178  0.62486
V19   V   0.12500  0.37514  0.05178
V20   V   0.12500  0.37514  0.94822
V21   V   0.12500  0.62486  0.05178
V22   V   0.12500  0.62486  0.94822
V23   V   0.12500  0.94822  0.37514
V24   V   0.12500  0.94822  0.62486
V25   V   0.37500  0.12486  0.44822
V26   V   0.37500  0.12486  0.55178
V27   V   0.37500  0.44822  0.12486
V28   V   0.37500  0.44822  0.87514
V29   V   0.37500  0.55178  0.12486
V30   V   0.37500  0.55178  0.87514
V31   V   0.37500  0.87514  0.44822
V32   V   0.37500  0.87514  0.55178
V33   V   0.37514  0.05178  0.12500
V34   V   0.37514  0.05178  0.87500
V35   V   0.37514  0.12500  0.05178
V36   V   0.37514  0.12500  0.94822
V37   V   0.37514  0.87500  0.05178
V38   V   0.37514  0.87500  0.94822
V39   V   0.37514  0.94822  0.12500
V40   V   0.37514  0.94822  0.87500
V41   V   0.44822  0.12486  0.37500
V42   V   0.44822  0.12486  0.62500
V43   V   0.44822  0.37500  0.12486
V44   V   0.44822  0.37500  0.87514
V45   V   0.44822  0.62500  0.12486
V46   V   0.44822  0.62500  0.87514
V47   V   0.44822  0.87514  0.37500
V48   V   0.44822  0.87514  0.62500
V49   V   0.55178  0.12486  0.37500
V50   V   0.55178  0.12486  0.62500
V51   V   0.55178  0.37500  0.12486
V52   V   0.55178  0.37500  0.87514
V53   V   0.55178  0.62500  0.12486
V54   V   0.55178  0.62500  0.87514
V55   V   0.55178  0.87514  0.37500
V56   V   0.55178  0.87514  0.62500
V57   V   0.62486  0.05178  0.12500
V58   V   0.62486  0.05178  0.87500
V59   V   0.62486  0.12500  0.05178
V60   V   0.62486  0.12500  0.94822
V61   V   0.62486  0.87500  0.05178
V62   V   0.62486  0.87500  0.94822
V63   V   0.62486  0.94822  0.12500
V64   V   0.62486  0.94822  0.87500
V65   V   0.62500  0.12486  0.44822
V66   V   0.62500  0.12486  0.55178
V67   V   0.62500  0.44822  0.12486
V68   V   0.62500  0.44822  0.87514
V69   V   0.62500  0.55178  0.12486
V70   V   0.62500  0.55178  0.87514
V71   V   0.62500  0.87514  0.44822
V72   V   0.62500  0.87514  0.55178
V73   V   0.87500  0.05178  0.37514
V74   V   0.87500  0.05178  0.62486
V75   V   0.87500  0.37514  0.05178
V76   V   0.87500  0.37514  0.94822
V77   V   0.87500  0.62486  0.05178
V78   V   0.87500  0.62486  0.94822
V79   V   0.87500  0.94822  0.37514
V80   V   0.87500  0.94822  0.62486
V81   V   0.87514  0.37500  0.44822
V82   V   0.87514  0.37500  0.55178
V83   V   0.87514  0.44822  0.37500
V84   V   0.87514  0.44822  0.62500
V85   V   0.87514  0.55178  0.37500
V86   V   0.87514  0.55178  0.62500
V87   V   0.87514  0.62500  0.44822
V88   V   0.87514  0.62500  0.55178
V89   V   0.94822  0.12500  0.37514
V90   V   0.94822  0.12500  0.62486
V91   V   0.94822  0.37514  0.12500
V92   V   0.94822  0.37514  0.87500
V93   V   0.94822  0.62486  0.12500
V94   V   0.94822  0.62486  0.87500
V95   V   0.94822  0.87500  0.37514
V96   V   0.94822  0.87500  0.62486
EC1    EC   0.12500  0.19822  0.37497
EC2    EC   0.12500  0.19822  0.62503
EC3    EC   0.12500  0.37497  0.19822
EC4    EC   0.12500  0.37497  0.80178
EC5    EC   0.12500  0.62503  0.19822
EC6    EC   0.12500  0.62503  0.80178
EC7    EC   0.12500  0.80178  0.37497
EC8    EC   0.12500  0.80178  0.62503
EC9    EC   0.12503  0.30178  0.37500
EC10   EC   0.12503  0.30178  0.62500
EC11   EC   0.12503  0.37500  0.30178
EC12   EC   0.12503  0.37500  0.69822
EC13   EC   0.12503  0.62500  0.30178
EC14   EC   0.12503  0.62500  0.69822
EC15   EC   0.12503  0.69822  0.37500
EC16   EC   0.12503  0.69822  0.62500
EC17   EC   0.19822  0.12500  0.37497
EC18   EC   0.19822  0.12500  0.62503
EC19   EC   0.19822  0.37497  0.12500
EC20   EC   0.19822  0.37497  0.87500
EC21   EC   0.19822  0.62503  0.12500
EC22   EC   0.19822  0.62503  0.87500
EC23   EC   0.19822  0.87500  0.37497
EC24   EC   0.19822  0.87500  0.62503
EC25   EC   0.30178  0.12503  0.37500
EC26   EC   0.30178  0.12503  0.62500
EC27   EC   0.30178  0.37500  0.12503
EC28   EC   0.30178  0.37500  0.87497
EC29   EC   0.30178  0.62500  0.12503
EC30   EC   0.30178  0.62500  0.87497
EC31   EC   0.30178  0.87497  0.37500
EC32   EC   0.30178  0.87497  0.62500
EC33   EC   0.37497  0.12500  0.19822
EC34   EC   0.37497  0.12500  0.80178
EC35   EC   0.37497  0.19822  0.12500
EC36   EC   0.37497  0.19822  0.87500
EC37   EC   0.37497  0.80178  0.12500
EC38   EC   0.37497  0.80178  0.87500
EC39   EC   0.37497  0.87500  0.19822
EC40   EC   0.37497  0.87500  0.80178
EC41   EC   0.37500  0.12503  0.30178
EC42   EC   0.37500  0.12503  0.69822
EC43   EC   0.37500  0.30178  0.12503
EC44   EC   0.37500  0.30178  0.87497
EC45   EC   0.37500  0.69822  0.12503
EC46   EC   0.37500  0.69822  0.87497
EC47   EC   0.37500  0.87497  0.30178
EC48   EC   0.37500  0.87497  0.69822
EC49   EC   0.62500  0.12503  0.30178
EC50   EC   0.62500  0.12503  0.69822
EC51   EC   0.62500  0.30178  0.12503
EC52   EC   0.62500  0.30178  0.87497
EC53   EC   0.62500  0.69822  0.12503
EC54   EC   0.62500  0.69822  0.87497
EC55   EC   0.62500  0.87497  0.30178
EC56   EC   0.62500  0.87497  0.69822
EC57   EC   0.62503  0.12500  0.19822
EC58   EC   0.62503  0.12500  0.80178
EC59   EC   0.62503  0.19822  0.12500
EC60   EC   0.62503  0.19822  0.87500
EC61   EC   0.62503  0.80178  0.12500
EC62   EC   0.62503  0.80178  0.87500
EC63   EC   0.62503  0.87500  0.19822
EC64   EC   0.62503  0.87500  0.80178
EC65   EC   0.69822  0.12503  0.37500
EC66   EC   0.69822  0.12503  0.62500
EC67   EC   0.69822  0.37500  0.12503
EC68   EC   0.69822  0.37500  0.87497
EC69   EC   0.69822  0.62500  0.12503
EC70   EC   0.69822  0.62500  0.87497
EC71   EC   0.69822  0.87497  0.37500
EC72   EC   0.69822  0.87497  0.62500
EC73   EC   0.80178  0.12500  0.37497
EC74   EC   0.80178  0.12500  0.62503
EC75   EC   0.80178  0.37497  0.12500
EC76   EC   0.80178  0.37497  0.87500
EC77   EC   0.80178  0.62503  0.12500
EC78   EC   0.80178  0.62503  0.87500
EC79   EC   0.80178  0.87500  0.37497
EC80   EC   0.80178  0.87500  0.62503
EC81   EC   0.87497  0.30178  0.37500
EC82   EC   0.87497  0.30178  0.62500
EC83   EC   0.87497  0.37500  0.30178
EC84   EC   0.87497  0.37500  0.69822
EC85   EC   0.87497  0.62500  0.30178
EC86   EC   0.87497  0.62500  0.69822
EC87   EC   0.87497  0.69822  0.37500
EC88   EC   0.87497  0.69822  0.62500
EC89   EC   0.87500  0.19822  0.37497
EC90   EC   0.87500  0.19822  0.62503
EC91   EC   0.87500  0.37497  0.19822
EC92   EC   0.87500  0.37497  0.80178
EC93   EC   0.87500  0.62503  0.19822
EC94   EC   0.87500  0.62503  0.80178
EC95   EC   0.87500  0.80178  0.37497
EC96   EC   0.87500  0.80178  0.62503
E1    E   0.00000  0.12500  0.37514
E2    E   0.00000  0.12500  0.62486
E3    E   0.00000  0.37514  0.12500
E4    E   0.00000  0.37514  0.87500
E5    E   0.00000  0.62486  0.12500
E6    E   0.00000  0.62486  0.87500
E7    E   0.00000  0.87500  0.37514
E8    E   0.00000  0.87500  0.62486
E9    E   0.08839  0.08839  0.37514
E10   E   0.08839  0.08839  0.62486
E11   E   0.08839  0.16161  0.37505
E12   E   0.08839  0.16161  0.62495
E13   E   0.08839  0.37505  0.16161
E14   E   0.08839  0.37505  0.83839
E15   E   0.08839  0.37514  0.08839
E16   E   0.08839  0.37514  0.91161
E17   E   0.08839  0.62486  0.08839
E18   E   0.08839  0.62486  0.91161
E19   E   0.08839  0.62495  0.16161
E20   E   0.08839  0.62495  0.83839
E21   E   0.08839  0.83839  0.37505
E22   E   0.08839  0.83839  0.62495
E23   E   0.08839  0.91161  0.37514
E24   E   0.08839  0.91161  0.62486
E25   E   0.12486  0.37500  0.50000
E26   E   0.12486  0.41161  0.41161
E27   E   0.12486  0.41161  0.58839
E28   E   0.12486  0.50000  0.37500
E29   E   0.12486  0.50000  0.62500
E30   E   0.12486  0.58839  0.41161
E31   E   0.12486  0.58839  0.58839
E32   E   0.12486  0.62500  0.50000
E33   E   0.12495  0.33839  0.41161
E34   E   0.12495  0.33839  0.58839
E35   E   0.12495  0.41161  0.33839
E36   E   0.12495  0.41161  0.66161
E37   E   0.12495  0.58839  0.33839
E38   E   0.12495  0.58839  0.66161
E39   E   0.12495  0.66161  0.41161
E40   E   0.12495  0.66161  0.58839
E41   E   0.12500  0.00000  0.37514
E42   E   0.12500  0.00000  0.62486
E43   E   0.12500  0.37514  0.00000
E44   E   0.12500  0.62486  0.00000
E45   E   0.12501  0.25000  0.37499
E46   E   0.12501  0.25000  0.62501
E47   E   0.12501  0.37499  0.25000
E48   E   0.12501  0.37499  0.75000
E49   E   0.12501  0.62501  0.25000
E50   E   0.12501  0.62501  0.75000
E51   E   0.12501  0.75000  0.37499
E52   E   0.12501  0.75000  0.62501
E53   E   0.12503  0.33839  0.33839
E54   E   0.12503  0.33839  0.66161
E55   E   0.12503  0.66161  0.33839
E56   E   0.12503  0.66161  0.66161
E57   E   0.16161  0.08839  0.37505
E58   E   0.16161  0.08839  0.62495
E59   E   0.16161  0.16161  0.37497
E60   E   0.16161  0.16161  0.62503
E61   E   0.16161  0.37497  0.16161
E62   E   0.16161  0.37497  0.83839
E63   E   0.16161  0.37505  0.08839
E64   E   0.16161  0.37505  0.91161
E65   E   0.16161  0.62495  0.08839
E66   E   0.16161  0.62495  0.91161
E67   E   0.16161  0.62503  0.16161
E68   E   0.16161  0.62503  0.83839
E69   E   0.16161  0.83839  0.37497
E70   E   0.16161  0.83839  0.62503
E71   E   0.16161  0.91161  0.37505
E72   E   0.16161  0.91161  0.62495
E73   E   0.25000  0.12501  0.37499
E74   E   0.25000  0.12501  0.62501
E75   E   0.25000  0.37499  0.12501
E76   E   0.25000  0.37499  0.87499
E77   E   0.25000  0.62501  0.12501
E78   E   0.25000  0.62501  0.87499
E79   E   0.25000  0.87499  0.37499
E80   E   0.25000  0.87499  0.62501
E81   E   0.33839  0.12495  0.41161
E82   E   0.33839  0.12495  0.58839
E83   E   0.33839  0.12503  0.33839
E84   E   0.33839  0.12503  0.66161
E85   E   0.33839  0.33839  0.12503
E86   E   0.33839  0.33839  0.87497
E87   E   0.33839  0.41161  0.12495
E88   E   0.33839  0.41161  0.87505
E89   E   0.33839  0.58839  0.12495
E90   E   0.33839  0.58839  0.87505
E91   E   0.33839  0.66161  0.12503
E92   E   0.33839  0.66161  0.87497
E93   E   0.33839  0.87497  0.33839
E94   E   0.33839  0.87497  0.66161
E95   E   0.33839  0.87505  0.41161
E96   E   0.33839  0.87505  0.58839
E97   E   0.37497  0.16161  0.16161
E98   E   0.37497  0.16161  0.83839
E99   E   0.37497  0.83839  0.16161
E100  E   0.37497  0.83839  0.83839
E101  E   0.37499  0.12501  0.25000
E102  E   0.37499  0.12501  0.75000
E103  E   0.37499  0.25000  0.12501
E104  E   0.37499  0.25000  0.87499
E105  E   0.37499  0.75000  0.12501
E106  E   0.37499  0.75000  0.87499
E107  E   0.37499  0.87499  0.25000
E108  E   0.37499  0.87499  0.75000
E109  E   0.37500  0.12486  0.50000
E110  E   0.37500  0.50000  0.12486
E111  E   0.37500  0.50000  0.87514
E112  E   0.37500  0.87514  0.50000
E113  E   0.37505  0.08839  0.16161
E114  E   0.37505  0.08839  0.83839
E115  E   0.37505  0.16161  0.08839
E116  E   0.37505  0.16161  0.91161
E117  E   0.37505  0.83839  0.08839
E118  E   0.37505  0.83839  0.91161
E119  E   0.37505  0.91161  0.16161
E120  E   0.37505  0.91161  0.83839
E121  E   0.37514  0.00000  0.12500
E122  E   0.37514  0.00000  0.87500
E123  E   0.37514  0.08839  0.08839
E124  E   0.37514  0.08839  0.91161
E125  E   0.37514  0.12500  0.00000
E126  E   0.37514  0.87500  0.00000
E127  E   0.37514  0.91161  0.08839
E128  E   0.37514  0.91161  0.91161
E129  E   0.41161  0.12486  0.41161
E130  E   0.41161  0.12486  0.58839
E131  E   0.41161  0.12495  0.33839
E132  E   0.41161  0.12495  0.66161
E133  E   0.41161  0.33839  0.12495
E134  E   0.41161  0.33839  0.87505
E135  E   0.41161  0.41161  0.12486
E136  E   0.41161  0.41161  0.87514
E137  E   0.41161  0.58839  0.12486
E138  E   0.41161  0.58839  0.87514
E139  E   0.41161  0.66161  0.12495
E140  E   0.41161  0.66161  0.87505
E141  E   0.41161  0.87505  0.33839
E142  E   0.41161  0.87505  0.66161
E143  E   0.41161  0.87514  0.41161
E144  E   0.41161  0.87514  0.58839
E145  E   0.50000  0.12486  0.37500
E146  E   0.50000  0.12486  0.62500
E147  E   0.50000  0.37500  0.12486
E148  E   0.50000  0.37500  0.87514
E149  E   0.50000  0.62500  0.12486
E150  E   0.50000  0.62500  0.87514
E151  E   0.50000  0.87514  0.37500
E152  E   0.50000  0.87514  0.62500
E153  E   0.58839  0.12486  0.41161
E154  E   0.58839  0.12486  0.58839
E155  E   0.58839  0.12495  0.33839
E156  E   0.58839  0.12495  0.66161
E157  E   0.58839  0.33839  0.12495
E158  E   0.58839  0.33839  0.87505
E159  E   0.58839  0.41161  0.12486
E160  E   0.58839  0.41161  0.87514
E161  E   0.58839  0.58839  0.12486
E162  E   0.58839  0.58839  0.87514
E163  E   0.58839  0.66161  0.12495
E164  E   0.58839  0.66161  0.87505
E165  E   0.58839  0.87505  0.33839
E166  E   0.58839  0.87505  0.66161
E167  E   0.58839  0.87514  0.41161
E168  E   0.58839  0.87514  0.58839
E169  E   0.62486  0.00000  0.12500
E170  E   0.62486  0.00000  0.87500
E171  E   0.62486  0.08839  0.08839
E172  E   0.62486  0.08839  0.91161
E173  E   0.62486  0.12500  0.00000
E174  E   0.62486  0.87500  0.00000
E175  E   0.62486  0.91161  0.08839
E176  E   0.62486  0.91161  0.91161
E177  E   0.62495  0.08839  0.16161
E178  E   0.62495  0.08839  0.83839
E179  E   0.62495  0.16161  0.08839
E180  E   0.62495  0.16161  0.91161
E181  E   0.62495  0.83839  0.08839
E182  E   0.62495  0.83839  0.91161
E183  E   0.62495  0.91161  0.16161
E184  E   0.62495  0.91161  0.83839
E185  E   0.62500  0.12486  0.50000
E186  E   0.62500  0.50000  0.12486
E187  E   0.62500  0.50000  0.87514
E188  E   0.62500  0.87514  0.50000
E189  E   0.62501  0.12501  0.25000
E190  E   0.62501  0.12501  0.75000
E191  E   0.62501  0.25000  0.12501
E192  E   0.62501  0.25000  0.87499
E193  E   0.62501  0.75000  0.12501
E194  E   0.62501  0.75000  0.87499
E195  E   0.62501  0.87499  0.25000
E196  E   0.62501  0.87499  0.75000
E197  E   0.62503  0.16161  0.16161
E198  E   0.62503  0.16161  0.83839
E199  E   0.62503  0.83839  0.16161
E200  E   0.62503  0.83839  0.83839
E201  E   0.66161  0.12495  0.41161
E202  E   0.66161  0.12495  0.58839
E203  E   0.66161  0.12503  0.33839
E204  E   0.66161  0.12503  0.66161
E205  E   0.66161  0.33839  0.12503
E206  E   0.66161  0.33839  0.87497
E207  E   0.66161  0.41161  0.12495
E208  E   0.66161  0.41161  0.87505
E209  E   0.66161  0.58839  0.12495
E210  E   0.66161  0.58839  0.87505
E211  E   0.66161  0.66161  0.12503
E212  E   0.66161  0.66161  0.87497
E213  E   0.66161  0.87497  0.33839
E214  E   0.66161  0.87497  0.66161
E215  E   0.66161  0.87505  0.41161
E216  E   0.66161  0.87505  0.58839
E217  E   0.75000  0.12501  0.37499
E218  E   0.75000  0.12501  0.62501
E219  E   0.75000  0.37499  0.12501
E220  E   0.75000  0.37499  0.87499
E221  E   0.75000  0.62501  0.12501
E222  E   0.75000  0.62501  0.87499
E223  E   0.75000  0.87499  0.37499
E224  E   0.75000  0.87499  0.62501
E225  E   0.83839  0.08839  0.37505
E226  E   0.83839  0.08839  0.62495
E227  E   0.83839  0.16161  0.37497
E228  E   0.83839  0.16161  0.62503
E229  E   0.83839  0.37497  0.16161
E230  E   0.83839  0.37497  0.83839
E231  E   0.83839  0.37505  0.08839
E232  E   0.83839  0.37505  0.91161
E233  E   0.83839  0.62495  0.08839
E234  E   0.83839  0.62495  0.91161
E235  E   0.83839  0.62503  0.16161
E236  E   0.83839  0.62503  0.83839
E237  E   0.83839  0.83839  0.37497
E238  E   0.83839  0.83839  0.62503
E239  E   0.83839  0.91161  0.37505
E240  E   0.83839  0.91161  0.62495
E241  E   0.87497  0.33839  0.33839
E242  E   0.87497  0.33839  0.66161
E243  E   0.87497  0.66161  0.33839
E244  E   0.87497  0.66161  0.66161
E245  E   0.87499  0.25000  0.37499
E246  E   0.87499  0.25000  0.62501
E247  E   0.87499  0.37499  0.25000
E248  E   0.87499  0.37499  0.75000
E249  E   0.87499  0.62501  0.25000
E250  E   0.87499  0.62501  0.75000
E251  E   0.87499  0.75000  0.37499
E252  E   0.87499  0.75000  0.62501
E253  E   0.87500  0.00000  0.37514
E254  E   0.87500  0.00000  0.62486
E255  E   0.87500  0.37514  0.00000
E256  E   0.87500  0.62486  0.00000
E257  E   0.87505  0.33839  0.41161
E258  E   0.87505  0.33839  0.58839
E259  E   0.87505  0.41161  0.33839
E260  E   0.87505  0.41161  0.66161
E261  E   0.87505  0.58839  0.33839
E262  E   0.87505  0.58839  0.66161
E263  E   0.87505  0.66161  0.41161
E264  E   0.87505  0.66161  0.58839
E265  E   0.87514  0.37500  0.50000
E266  E   0.87514  0.41161  0.41161
E267  E   0.87514  0.41161  0.58839
E268  E   0.87514  0.50000  0.37500
E269  E   0.87514  0.50000  0.62500
E270  E   0.87514  0.58839  0.41161
E271  E   0.87514  0.58839  0.58839
E272  E   0.87514  0.62500  0.50000
E273  E   0.91161  0.08839  0.37514
E274  E   0.91161  0.08839  0.62486
E275  E   0.91161  0.16161  0.37505
E276  E   0.91161  0.16161  0.62495
E277  E   0.91161  0.37505  0.16161
E278  E   0.91161  0.37505  0.83839
E279  E   0.91161  0.37514  0.08839
E280  E   0.91161  0.37514  0.91161
E281  E   0.91161  0.62486  0.08839
E282  E   0.91161  0.62486  0.91161
E283  E   0.91161  0.62495  0.16161
E284  E   0.91161  0.62495  0.83839
E285  E   0.91161  0.83839  0.37505
E286  E   0.91161  0.83839  0.62495
E287  E   0.91161  0.91161  0.37514
E288  E   0.91161  0.91161  0.62486
loop_
