data_stc_R-3m:H  hall_number: 166, V_con: 6, EC_con: 6
_audit_creation_date              2025-03-05
_audit_creation_method            'MOFbuilder_1.0'
_symmetry_space_group_name_H-M    'P1'
_symmetry_Int_Tables_number       1
_symmetry_cell_setting            triclinic
loop_
_symmetry_equiv_pos_as_xyz
  x,y,z
_cell_length_a                    14.1385
_cell_length_b                    14.1385
_cell_length_c                    69.31739999999999
_cell_angle_alpha                 90.0
_cell_angle_beta                  90.0
_cell_angle_gamma                 120.0
loop_
_atom_site_label
_atom_site_type_symbol
_atom_site_fract_x
_atom_site_fract_y
_atom_site_fract_z
V1    V   0.00000  0.00000  0.29167
V2    V   0.00000  0.50000  0.20833
V3    V   0.50000  0.00000  0.70833
V4    V   0.50000  0.50000  0.79167
EC1    EC   0.00000  0.00000  0.12500
EC2    EC   0.00000  0.50000  0.37500
EC3    EC   0.50000  0.00000  0.87500
EC4    EC   0.50000  0.50000  0.62500
E1    E   0.16667  0.33333  0.16667
E2    E   0.16667  0.83333  0.33333
E3    E   0.33333  0.16667  0.08333
E4    E   0.33333  0.16667  0.16667
E5    E   0.33333  0.66667  0.33333
E6    E   0.33333  0.66667  0.41667
E7    E   0.66667  0.16667  0.66667
E8    E   0.66667  0.66667  0.83333
E9    E   0.83333  0.33333  0.58333
E10   E   0.83333  0.33333  0.66667
E11   E   0.83333  0.83333  0.83333
E12   E   0.83333  0.83333  0.91667
loop_
