data_stj_I4/mmm  hall_number: 424, V_con: 4, EC_con: 3
_audit_creation_date              2025-03-05
_audit_creation_method            'MOFbuilder_1.0'
_symmetry_space_group_name_H-M    'P1'
_symmetry_Int_Tables_number       1
_symmetry_cell_setting            triclinic
loop_
_symmetry_equiv_pos_as_xyz
  x,y,z
_cell_length_a                    49.462
_cell_length_b                    49.462
_cell_length_c                    27.0553
_cell_angle_alpha                 90.0
_cell_angle_beta                  90.0
_cell_angle_gamma                 90.0
loop_
_atom_site_label
_atom_site_type_symbol
_atom_site_fract_x
_atom_site_fract_y
_atom_site_fract_z
V1    V   0.25000  0.25000  0.25000
V2    V   0.25000  0.25000  0.75000
V3    V   0.25000  0.75000  0.25000
V4    V   0.25000  0.75000  0.75000
V5    V   0.75000  0.25000  0.25000
V6    V   0.75000  0.25000  0.75000
V7    V   0.75000  0.75000  0.25000
V8    V   0.75000  0.75000  0.75000
EC1    EC   0.10109  0.25033  0.50000
EC2    EC   0.10109  0.74967  0.50000
EC3    EC   0.24967  0.39891  0.00000
EC4    EC   0.24967  0.60109  0.00000
EC5    EC   0.25033  0.10109  0.50000
EC6    EC   0.25033  0.89891  0.50000
EC7    EC   0.39891  0.24967  0.00000
EC8    EC   0.39891  0.75033  0.00000
EC9    EC   0.60109  0.24967  0.00000
EC10   EC   0.60109  0.75033  0.00000
EC11   EC   0.74967  0.10109  0.50000
EC12   EC   0.74967  0.89891  0.50000
EC13   EC   0.75033  0.39891  0.00000
EC14   EC   0.75033  0.60109  0.00000
EC15   EC   0.89891  0.25033  0.50000
EC16   EC   0.89891  0.74967  0.50000
E1    E   0.00000  0.25033  0.50000
E2    E   0.00000  0.74967  0.50000
E3    E   0.17554  0.25017  0.37500
E4    E   0.17554  0.25017  0.62500
E5    E   0.17554  0.74983  0.37500
E6    E   0.17554  0.74983  0.62500
E7    E   0.24967  0.50000  0.00000
E8    E   0.24983  0.32446  0.12500
E9    E   0.24983  0.32446  0.87500
E10   E   0.24983  0.67554  0.12500
E11   E   0.24983  0.67554  0.87500
E12   E   0.25017  0.17554  0.37500
E13   E   0.25017  0.17554  0.62500
E14   E   0.25017  0.82446  0.37500
E15   E   0.25017  0.82446  0.62500
E16   E   0.25033  0.00000  0.50000
E17   E   0.32446  0.24983  0.12500
E18   E   0.32446  0.24983  0.87500
E19   E   0.32446  0.75017  0.12500
E20   E   0.32446  0.75017  0.87500
E21   E   0.50000  0.24967  0.00000
E22   E   0.50000  0.75033  0.00000
E23   E   0.67554  0.24983  0.12500
E24   E   0.67554  0.24983  0.87500
E25   E   0.67554  0.75017  0.12500
E26   E   0.67554  0.75017  0.87500
E27   E   0.74967  0.00000  0.50000
E28   E   0.74983  0.17554  0.37500
E29   E   0.74983  0.17554  0.62500
E30   E   0.74983  0.82446  0.37500
E31   E   0.74983  0.82446  0.62500
E32   E   0.75017  0.32446  0.12500
E33   E   0.75017  0.32446  0.87500
E34   E   0.75017  0.67554  0.12500
E35   E   0.75017  0.67554  0.87500
E36   E   0.75033  0.50000  0.00000
E37   E   0.82446  0.25017  0.37500
E38   E   0.82446  0.25017  0.62500
E39   E   0.82446  0.74983  0.37500
E40   E   0.82446  0.74983  0.62500
loop_
