data_sto_P6422  hall_number: 475, V_con: 4, EC_con: 3
_audit_creation_date              2025-03-05
_audit_creation_method            'MOFbuilder_1.0'
_symmetry_space_group_name_H-M    'P1'
_symmetry_Int_Tables_number       1
_symmetry_cell_setting            triclinic
loop_
_symmetry_equiv_pos_as_xyz
  x,y,z
_cell_length_a                    10.0
_cell_length_b                    10.0
_cell_length_c                    85.9807
_cell_angle_alpha                 90.0
_cell_angle_beta                  90.0
_cell_angle_gamma                 120.0
loop_
_atom_site_label
_atom_site_type_symbol
_atom_site_fract_x
_atom_site_fract_y
_atom_site_fract_z
V1    V   0.00000  0.50000  0.83333
V2    V   0.50000  0.00000  0.50000
V3    V   0.50000  0.50000  0.16667
V4    V   0.50000  0.50000  0.16667
EC1    EC   0.00000  0.50000  0.71702
EC2    EC   0.00000  0.50000  0.94964
EC3    EC   0.50000  0.00000  0.38369
EC4    EC   0.50000  0.00000  0.61631
EC5    EC   0.50000  0.50000  0.05036
EC6    EC   0.50000  0.50000  0.28298
E1    E   0.00000  0.00000  0.16667
E2    E   0.00000  0.00000  0.16667
E3    E   0.00000  0.00000  0.50000
E4    E   0.00000  0.00000  0.83333
E5    E   0.00000  0.50000  0.77518
E6    E   0.00000  0.50000  0.89148
E7    E   0.25000  0.50000  0.00000
E8    E   0.25000  0.50000  1.00000
E9    E   0.25000  0.75000  0.66666
E10   E   0.25000  0.75000  0.66667
E11   E   0.50000  0.00000  0.44185
E12   E   0.50000  0.00000  0.55815
E13   E   0.50000  0.25000  0.33333
E14   E   0.50000  0.25000  0.33334
E15   E   0.50000  0.50000  0.10852
E16   E   0.50000  0.50000  0.22482
E17   E   0.50000  0.75000  0.33333
E18   E   0.50000  0.75000  0.33334
E19   E   0.75000  0.25000  0.66666
E20   E   0.75000  0.25000  0.66667
E21   E   0.75000  0.50000  0.00000
E22   E   0.75000  0.50000  1.00000
loop_
