data_str_Fd-3m:2  hall_number: 526, V_con: 6, EC_con: 6
_audit_creation_date              2025-03-05
_audit_creation_method            'MOFbuilder_1.0'
_symmetry_space_group_name_H-M    'P1'
_symmetry_Int_Tables_number       1
_symmetry_cell_setting            triclinic
loop_
_symmetry_equiv_pos_as_xyz
  x,y,z
_cell_length_a                    47.155699999999996
_cell_length_b                    47.155699999999996
_cell_length_c                    47.155699999999996
_cell_angle_alpha                 90.0
_cell_angle_beta                  90.0
_cell_angle_gamma                 90.0
loop_
_atom_site_label
_atom_site_type_symbol
_atom_site_fract_x
_atom_site_fract_y
_atom_site_fract_z
V1    V   0.00000  0.00000  0.00000
V2    V   0.00000  0.25000  0.25000
V3    V   0.00000  0.50000  0.50000
V4    V   0.00000  0.75000  0.75000
V5    V   0.25000  0.00000  0.25000
V6    V   0.25000  0.25000  0.00000
V7    V   0.25000  0.50000  0.75000
V8    V   0.25000  0.75000  0.50000
V9    V   0.50000  0.00000  0.50000
V10   V   0.50000  0.25000  0.75000
V11   V   0.50000  0.50000  0.00000
V12   V   0.50000  0.75000  0.25000
V13   V   0.75000  0.00000  0.75000
V14   V   0.75000  0.25000  0.50000
V15   V   0.75000  0.50000  0.25000
V16   V   0.75000  0.75000  0.00000
EC1    EC   0.05005  0.05005  0.19995
EC2    EC   0.05005  0.05005  0.19995
EC3    EC   0.05005  0.19995  0.05005
EC4    EC   0.05005  0.19995  0.05005
EC5    EC   0.05005  0.55005  0.69995
EC6    EC   0.05005  0.69995  0.55005
EC7    EC   0.05005  0.05005  0.19995
EC8    EC   0.05005  0.19995  0.05005
EC9    EC   0.05005  0.55005  0.69995
EC10   EC   0.05005  0.69995  0.55005
EC11   EC   0.19995  0.05005  0.05005
EC12   EC   0.19995  0.19995  0.19995
EC13   EC   0.19995  0.55005  0.55005
EC14   EC   0.19995  0.69995  0.69995
EC15   EC   0.19995  0.05005  0.05005
EC16   EC   0.19995  0.05005  0.05005
EC17   EC   0.19995  0.19995  0.19995
EC18   EC   0.19995  0.19995  0.19995
EC19   EC   0.19995  0.55005  0.55005
EC20   EC   0.19995  0.69995  0.69995
EC21   EC   0.30005  0.30005  0.80005
EC22   EC   0.30005  0.30005  0.80005
EC23   EC   0.30005  0.44995  0.94995
EC24   EC   0.30005  0.44995  0.94995
EC25   EC   0.30005  0.80005  0.30005
EC26   EC   0.30005  0.80005  0.30005
EC27   EC   0.30005  0.94995  0.44995
EC28   EC   0.30005  0.94995  0.44995
EC29   EC   0.30005  0.30005  0.80005
EC30   EC   0.30005  0.44995  0.94995
EC31   EC   0.30005  0.80005  0.30005
EC32   EC   0.30005  0.94995  0.44995
EC33   EC   0.44995  0.30005  0.94995
EC34   EC   0.44995  0.44995  0.80005
EC35   EC   0.44995  0.80005  0.44995
EC36   EC   0.44995  0.94995  0.30005
EC37   EC   0.44995  0.30005  0.94995
EC38   EC   0.44995  0.30005  0.94995
EC39   EC   0.44995  0.44995  0.80005
EC40   EC   0.44995  0.44995  0.80005
EC41   EC   0.44995  0.80005  0.44995
EC42   EC   0.44995  0.80005  0.44995
EC43   EC   0.44995  0.94995  0.30005
EC44   EC   0.44995  0.94995  0.30005
EC45   EC   0.55005  0.05005  0.69995
EC46   EC   0.55005  0.05005  0.69995
EC47   EC   0.55005  0.19995  0.55005
EC48   EC   0.55005  0.19995  0.55005
EC49   EC   0.55005  0.55005  0.19995
EC50   EC   0.55005  0.55005  0.19995
EC51   EC   0.55005  0.69995  0.05005
EC52   EC   0.55005  0.69995  0.05005
EC53   EC   0.69995  0.05005  0.55005
EC54   EC   0.69995  0.05005  0.55005
EC55   EC   0.69995  0.19995  0.69995
EC56   EC   0.69995  0.19995  0.69995
EC57   EC   0.69995  0.55005  0.05005
EC58   EC   0.69995  0.55005  0.05005
EC59   EC   0.69995  0.69995  0.19995
EC60   EC   0.69995  0.69995  0.19995
EC61   EC   0.80005  0.30005  0.30005
EC62   EC   0.80005  0.30005  0.30005
EC63   EC   0.80005  0.30005  0.30005
EC64   EC   0.80005  0.44995  0.44995
EC65   EC   0.80005  0.44995  0.44995
EC66   EC   0.80005  0.44995  0.44995
EC67   EC   0.80005  0.80005  0.80005
EC68   EC   0.80005  0.94995  0.94995
EC69   EC   0.94995  0.30005  0.44995
EC70   EC   0.94995  0.30005  0.44995
EC71   EC   0.94995  0.30005  0.44995
EC72   EC   0.94995  0.44995  0.30005
EC73   EC   0.94995  0.44995  0.30005
EC74   EC   0.94995  0.44995  0.30005
EC75   EC   0.94995  0.80005  0.94995
EC76   EC   0.94995  0.94995  0.80005
E1    E   0.02503  0.02503  0.09997
E2    E   0.02503  0.09997  0.02503
E3    E   0.02503  0.15003  0.22497
E4    E   0.02503  0.22497  0.15003
E5    E   0.02503  0.52503  0.59997
E6    E   0.02503  0.59997  0.52503
E7    E   0.02503  0.65003  0.72497
E8    E   0.02503  0.72497  0.65003
E9    E   0.05005  0.12500  0.12500
E10   E   0.05005  0.62500  0.62500
E11   E   0.09997  0.02503  0.02503
E12   E   0.09997  0.22497  0.22497
E13   E   0.09997  0.52503  0.52503
E14   E   0.09997  0.72497  0.72497
E15   E   0.12500  0.05005  0.12500
E16   E   0.12500  0.12500  0.05005
E17   E   0.12500  0.12500  0.19995
E18   E   0.12500  0.19995  0.12500
E19   E   0.12500  0.55005  0.62500
E20   E   0.12500  0.62500  0.55005
E21   E   0.12500  0.62500  0.69995
E22   E   0.12500  0.69995  0.62500
E23   E   0.15003  0.02503  0.22497
E24   E   0.15003  0.22497  0.02503
E25   E   0.15003  0.52503  0.72497
E26   E   0.15003  0.72497  0.52503
E27   E   0.19995  0.12500  0.12500
E28   E   0.19995  0.62500  0.62500
E29   E   0.22497  0.02503  0.15003
E30   E   0.22497  0.09997  0.22497
E31   E   0.22497  0.15003  0.02503
E32   E   0.22497  0.22497  0.09997
E33   E   0.22497  0.52503  0.65003
E34   E   0.22497  0.59997  0.72497
E35   E   0.22497  0.65003  0.52503
E36   E   0.22497  0.72497  0.59997
E37   E   0.27503  0.27503  0.90003
E38   E   0.27503  0.34997  0.97497
E39   E   0.27503  0.40003  0.77503
E40   E   0.27503  0.47497  0.84997
E41   E   0.27503  0.77503  0.40003
E42   E   0.27503  0.84997  0.47497
E43   E   0.27503  0.90003  0.27503
E44   E   0.27503  0.97497  0.34997
E45   E   0.30005  0.37500  0.87500
E46   E   0.30005  0.87500  0.37500
E47   E   0.34997  0.27503  0.97497
E48   E   0.34997  0.47497  0.77503
E49   E   0.34997  0.77503  0.47497
E50   E   0.34997  0.97497  0.27503
E51   E   0.37500  0.30005  0.87500
E52   E   0.37500  0.37500  0.80005
E53   E   0.37500  0.37500  0.94995
E54   E   0.37500  0.44995  0.87500
E55   E   0.37500  0.80005  0.37500
E56   E   0.37500  0.87500  0.30005
E57   E   0.37500  0.87500  0.44995
E58   E   0.37500  0.94995  0.37500
E59   E   0.40003  0.27503  0.77503
E60   E   0.40003  0.47497  0.97497
E61   E   0.40003  0.77503  0.27503
E62   E   0.40003  0.97497  0.47497
E63   E   0.44995  0.37500  0.87500
E64   E   0.44995  0.87500  0.37500
E65   E   0.47497  0.27503  0.84997
E66   E   0.47497  0.34997  0.77503
E67   E   0.47497  0.40003  0.97497
E68   E   0.47497  0.47497  0.90003
E69   E   0.47497  0.77503  0.34997
E70   E   0.47497  0.84997  0.27503
E71   E   0.47497  0.90003  0.47497
E72   E   0.47497  0.97497  0.40003
E73   E   0.52503  0.02503  0.59997
E74   E   0.52503  0.09997  0.52503
E75   E   0.52503  0.15003  0.72497
E76   E   0.52503  0.22497  0.65003
E77   E   0.52503  0.52503  0.09997
E78   E   0.52503  0.59997  0.02503
E79   E   0.52503  0.65003  0.22497
E80   E   0.52503  0.72497  0.15003
E81   E   0.55005  0.12500  0.62500
E82   E   0.55005  0.62500  0.12500
E83   E   0.59997  0.02503  0.52503
E84   E   0.59997  0.22497  0.72497
E85   E   0.59997  0.52503  0.02503
E86   E   0.59997  0.72497  0.22497
E87   E   0.62500  0.05005  0.62500
E88   E   0.62500  0.12500  0.55005
E89   E   0.62500  0.12500  0.69995
E90   E   0.62500  0.19995  0.62500
E91   E   0.62500  0.55005  0.12500
E92   E   0.62500  0.62500  0.05005
E93   E   0.62500  0.62500  0.19995
E94   E   0.62500  0.69995  0.12500
E95   E   0.65003  0.02503  0.72497
E96   E   0.65003  0.22497  0.52503
E97   E   0.65003  0.52503  0.22497
E98   E   0.65003  0.72497  0.02503
E99   E   0.69995  0.12500  0.62500
E100  E   0.69995  0.62500  0.12500
E101  E   0.72497  0.02503  0.65003
E102  E   0.72497  0.09997  0.72497
E103  E   0.72497  0.15003  0.52503
E104  E   0.72497  0.22497  0.59997
E105  E   0.72497  0.52503  0.15003
E106  E   0.72497  0.59997  0.22497
E107  E   0.72497  0.65003  0.02503
E108  E   0.72497  0.72497  0.09997
E109  E   0.77503  0.27503  0.40003
E110  E   0.77503  0.34997  0.47497
E111  E   0.77503  0.40003  0.27503
E112  E   0.77503  0.47497  0.34997
E113  E   0.77503  0.77503  0.90003
E114  E   0.77503  0.84997  0.97497
E115  E   0.77503  0.90003  0.77503
E116  E   0.77503  0.97497  0.84997
E117  E   0.80005  0.37500  0.37500
E118  E   0.80005  0.87500  0.87500
E119  E   0.84997  0.27503  0.47497
E120  E   0.84997  0.47497  0.27503
E121  E   0.84997  0.77503  0.97497
E122  E   0.84997  0.97497  0.77503
E123  E   0.87500  0.30005  0.37500
E124  E   0.87500  0.37500  0.30005
E125  E   0.87500  0.37500  0.44995
E126  E   0.87500  0.44995  0.37500
E127  E   0.87500  0.80005  0.87500
E128  E   0.87500  0.87500  0.80005
E129  E   0.87500  0.87500  0.94995
E130  E   0.87500  0.94995  0.87500
E131  E   0.90003  0.27503  0.27503
E132  E   0.90003  0.47497  0.47497
E133  E   0.90003  0.77503  0.77503
E134  E   0.90003  0.97497  0.97497
E135  E   0.94995  0.37500  0.37500
E136  E   0.94995  0.87500  0.87500
E137  E   0.97497  0.27503  0.34997
E138  E   0.97497  0.34997  0.27503
E139  E   0.97497  0.40003  0.47497
E140  E   0.97497  0.47497  0.40003
E141  E   0.97497  0.77503  0.84997
E142  E   0.97497  0.84997  0.77503
E143  E   0.97497  0.90003  0.97497
E144  E   0.97497  0.97497  0.90003
loop_
