data_sty_P63/mmc  hall_number: 488, V_con: 4, EC_con: 3
_audit_creation_date              2025-03-05
_audit_creation_method            'MOFbuilder_1.0'
_symmetry_space_group_name_H-M    'P1'
_symmetry_Int_Tables_number       1
_symmetry_cell_setting            triclinic
loop_
_symmetry_equiv_pos_as_xyz
  x,y,z
_cell_length_a                    36.0279
_cell_length_b                    36.0279
_cell_length_c                    37.378
_cell_angle_alpha                 90.0
_cell_angle_beta                  90.0
_cell_angle_gamma                 120.0
loop_
_atom_site_label
_atom_site_type_symbol
_atom_site_fract_x
_atom_site_fract_y
_atom_site_fract_z
V1    V   0.00000  0.50000  0.00000
V2    V   0.00000  0.50000  0.50000
V3    V   0.50000  0.00000  0.00000
V4    V   0.50000  0.00000  0.50000
V5    V   0.50000  0.50000  0.00000
V6    V   0.50000  0.50000  0.50000
EC1    EC   0.25006  0.50013  0.61623
EC2    EC   0.25006  0.50013  0.88377
EC3    EC   0.25006  0.74993  0.61623
EC4    EC   0.25006  0.74993  0.88377
EC5    EC   0.25007  0.50013  0.61623
EC6    EC   0.25007  0.50013  0.88377
EC7    EC   0.25007  0.74994  0.61623
EC8    EC   0.25007  0.74994  0.88377
EC9    EC   0.49987  0.74993  0.61623
EC10   EC   0.49987  0.74993  0.88377
EC11   EC   0.49987  0.74994  0.61623
EC12   EC   0.49987  0.74994  0.88377
EC13   EC   0.50013  0.25006  0.11623
EC14   EC   0.50013  0.25006  0.38377
EC15   EC   0.50013  0.25007  0.11623
EC16   EC   0.50013  0.25007  0.38377
EC17   EC   0.74993  0.25006  0.11623
EC18   EC   0.74993  0.25006  0.38377
EC19   EC   0.74993  0.49987  0.11623
EC20   EC   0.74993  0.49987  0.38377
EC21   EC   0.74994  0.25007  0.11623
EC22   EC   0.74994  0.25007  0.38377
EC23   EC   0.74994  0.49987  0.11623
EC24   EC   0.74994  0.49987  0.38377
E1    E   0.12503  0.50007  0.55812
E2    E   0.12503  0.50007  0.94188
E3    E   0.12503  0.62496  0.55812
E4    E   0.12503  0.62496  0.94188
E5    E   0.25006  0.50013  0.75000
E6    E   0.25006  0.74993  0.75000
E7    E   0.25007  0.50013  0.75000
E8    E   0.25007  0.74994  0.75000
E9    E   0.37504  0.50007  0.55812
E10   E   0.37504  0.50007  0.94188
E11   E   0.37504  0.87497  0.55812
E12   E   0.37504  0.87497  0.94188
E13   E   0.49987  0.74993  0.75000
E14   E   0.49987  0.74994  0.75000
E15   E   0.49993  0.62496  0.55812
E16   E   0.49993  0.62496  0.94188
E17   E   0.49993  0.87497  0.55812
E18   E   0.49993  0.87497  0.94188
E19   E   0.50007  0.12503  0.05812
E20   E   0.50007  0.12503  0.44188
E21   E   0.50007  0.37504  0.05812
E22   E   0.50007  0.37504  0.44188
E23   E   0.50013  0.25006  0.25000
E24   E   0.50013  0.25007  0.25000
E25   E   0.62496  0.12503  0.05812
E26   E   0.62496  0.12503  0.44188
E27   E   0.62496  0.49993  0.05812
E28   E   0.62496  0.49993  0.44188
E29   E   0.74993  0.25006  0.25000
E30   E   0.74993  0.49987  0.25000
E31   E   0.74994  0.25007  0.25000
E32   E   0.74994  0.49987  0.25000
E33   E   0.87497  0.37504  0.05812
E34   E   0.87497  0.37504  0.44188
E35   E   0.87497  0.49993  0.05812
E36   E   0.87497  0.49993  0.44188
loop_
