data_svh_I41/amd:2  hall_number: 427, V_con: 7
_audit_creation_date              2025-03-05
_audit_creation_method            'MOFbuilder_1.0'
_symmetry_space_group_name_H-M    'P1'
_symmetry_Int_Tables_number       1
_symmetry_cell_setting            triclinic
loop_
_symmetry_equiv_pos_as_xyz
  x,y,z
_cell_length_a                    10.0
_cell_length_b                    10.0
_cell_length_c                    74.6408
_cell_angle_alpha                 90.0
_cell_angle_beta                  90.0
_cell_angle_gamma                 90.0
loop_
_atom_site_label
_atom_site_type_symbol
_atom_site_fract_x
_atom_site_fract_y
_atom_site_fract_z
V1    V   0.00000  0.25000  0.80801
V2    V   0.00000  0.25000  0.94199
V3    V   0.00000  0.75000  0.05801
V4    V   0.00000  0.75000  0.19199
V5    V   0.50000  0.25000  0.55801
V6    V   0.50000  0.25000  0.69199
V7    V   0.50000  0.75000  0.30801
V8    V   0.50000  0.75000  0.44199
E1    E   0.00000  0.00000  0.00000
E2    E   0.00000  0.25000  0.05801
E3    E   0.00000  0.25000  0.19199
E4    E   0.00000  0.25000  0.55801
E5    E   0.00000  0.25000  0.69199
E6    E   0.00000  0.25000  0.87500
E7    E   0.00000  0.50000  0.00000
E8    E   0.00000  0.75000  0.12500
E9    E   0.00000  0.75000  0.30801
E10   E   0.00000  0.75000  0.44199
E11   E   0.00000  0.75000  0.80801
E12   E   0.00000  0.75000  0.94199
E13   E   0.25000  0.25000  0.75000
E14   E   0.25000  0.75000  0.25000
E15   E   0.50000  0.00000  0.50000
E16   E   0.50000  0.25000  0.30801
E17   E   0.50000  0.25000  0.44199
E18   E   0.50000  0.25000  0.62500
E19   E   0.50000  0.25000  0.80801
E20   E   0.50000  0.25000  0.94199
E21   E   0.50000  0.50000  0.50000
E22   E   0.50000  0.75000  0.05801
E23   E   0.50000  0.75000  0.19199
E24   E   0.50000  0.75000  0.37500
E25   E   0.50000  0.75000  0.55801
E26   E   0.50000  0.75000  0.69199
E27   E   0.75000  0.25000  0.75000
E28   E   0.75000  0.75000  0.25000
loop_
