data_svi_I4/mcm  hall_number: 425, V_con: 7
_audit_creation_date              2025-03-05
_audit_creation_method            'MOFbuilder_1.0'
_symmetry_space_group_name_H-M    'P1'
_symmetry_Int_Tables_number       1
_symmetry_cell_setting            triclinic
loop_
_symmetry_equiv_pos_as_xyz
  x,y,z
_cell_length_a                    19.3185
_cell_length_b                    19.3185
_cell_length_c                    18.6121
_cell_angle_alpha                 90.0
_cell_angle_beta                  90.0
_cell_angle_gamma                 90.0
loop_
_atom_site_label
_atom_site_type_symbol
_atom_site_fract_x
_atom_site_fract_y
_atom_site_fract_z
V1    V   0.18301  0.31699  0.00000
V2    V   0.18301  0.68301  0.50000
V3    V   0.31699  0.18301  0.50000
V4    V   0.31699  0.81699  0.00000
V5    V   0.68301  0.18301  0.00000
V6    V   0.68301  0.81699  0.50000
V7    V   0.81699  0.31699  0.50000
V8    V   0.81699  0.68301  0.00000
E1    E   0.00000  0.50000  0.00000
E2    E   0.00000  0.50000  0.50000
E3    E   0.06699  0.25000  0.50000
E4    E   0.06699  0.75000  0.00000
E5    E   0.25000  0.06699  0.00000
E6    E   0.25000  0.25000  0.25000
E7    E   0.25000  0.25000  0.75000
E8    E   0.25000  0.43301  0.50000
E9    E   0.25000  0.56699  0.00000
E10   E   0.25000  0.75000  0.25000
E11   E   0.25000  0.75000  0.75000
E12   E   0.25000  0.93301  0.50000
E13   E   0.43301  0.25000  0.00000
E14   E   0.43301  0.75000  0.50000
E15   E   0.50000  0.00000  0.00000
E16   E   0.50000  0.00000  0.50000
E17   E   0.56699  0.25000  0.50000
E18   E   0.56699  0.75000  0.00000
E19   E   0.75000  0.06699  0.50000
E20   E   0.75000  0.25000  0.25000
E21   E   0.75000  0.25000  0.75000
E22   E   0.75000  0.43301  0.00000
E23   E   0.75000  0.56699  0.50000
E24   E   0.75000  0.75000  0.25000
E25   E   0.75000  0.75000  0.75000
E26   E   0.75000  0.93301  0.00000
E27   E   0.93301  0.25000  0.00000
E28   E   0.93301  0.75000  0.50000
loop_
