data_svn-d_Pa-3  hall_number: 501, V_con: 6, EC_con: 3
_audit_creation_date              2025-03-05
_audit_creation_method            'MOFbuilder_1.0'
_symmetry_space_group_name_H-M    'P1'
_symmetry_Int_Tables_number       1
_symmetry_cell_setting            triclinic
loop_
_symmetry_equiv_pos_as_xyz
  x,y,z
_cell_length_a                    36.146699999999996
_cell_length_b                    36.146699999999996
_cell_length_c                    36.146699999999996
_cell_angle_alpha                 90.0
_cell_angle_beta                  90.0
_cell_angle_gamma                 90.0
loop_
_atom_site_label
_atom_site_type_symbol
_atom_site_fract_x
_atom_site_fract_y
_atom_site_fract_z
V1    V   0.00000  0.00000  0.00000
V2    V   0.00000  0.50000  0.50000
V3    V   0.50000  0.00000  0.50000
V4    V   0.50000  0.50000  0.00000
EC1    EC   0.05330  0.55365  0.23389
EC2    EC   0.05330  0.94635  0.73389
EC3    EC   0.05365  0.23389  0.44670
EC4    EC   0.05365  0.26611  0.94670
EC5    EC   0.23389  0.05330  0.55365
EC6    EC   0.23389  0.44670  0.05365
EC7    EC   0.26611  0.55330  0.55365
EC8    EC   0.26611  0.94670  0.05365
EC9    EC   0.44635  0.73389  0.44670
EC10   EC   0.44635  0.76611  0.94670
EC11   EC   0.44670  0.05365  0.23389
EC12   EC   0.44670  0.44635  0.73389
EC13   EC   0.55330  0.55365  0.26611
EC14   EC   0.55330  0.94635  0.76611
EC15   EC   0.55365  0.23389  0.05330
EC16   EC   0.55365  0.26611  0.55330
EC17   EC   0.73389  0.05330  0.94635
EC18   EC   0.73389  0.44670  0.44635
EC19   EC   0.76611  0.55330  0.94635
EC20   EC   0.76611  0.94670  0.44635
EC21   EC   0.94635  0.73389  0.05330
EC22   EC   0.94635  0.76611  0.55330
EC23   EC   0.94670  0.05365  0.26611
EC24   EC   0.94670  0.44635  0.76611
E1    E   0.00017  0.14377  0.35640
E2    E   0.00017  0.35623  0.85640
E3    E   0.02665  0.52683  0.36694
E4    E   0.02665  0.97317  0.86694
E5    E   0.02683  0.13306  0.97335
E6    E   0.02683  0.36694  0.47335
E7    E   0.13306  0.52665  0.52683
E8    E   0.13306  0.97335  0.02683
E9    E   0.14360  0.50017  0.14377
E10   E   0.14360  0.99983  0.64377
E11   E   0.14377  0.14360  0.50017
E12   E   0.14377  0.35640  0.00017
E13   E   0.35623  0.64360  0.50017
E14   E   0.35623  0.85640  0.00017
E15   E   0.35640  0.00017  0.14377
E16   E   0.35640  0.49983  0.64377
E17   E   0.36694  0.02665  0.52683
E18   E   0.36694  0.47335  0.02683
E19   E   0.47317  0.63306  0.97335
E20   E   0.47317  0.86694  0.47335
E21   E   0.47335  0.02683  0.36694
E22   E   0.47335  0.47317  0.86694
E23   E   0.49983  0.64377  0.35640
E24   E   0.49983  0.85623  0.85640
E25   E   0.50017  0.14377  0.14360
E26   E   0.50017  0.35623  0.64360
E27   E   0.52665  0.52683  0.13306
E28   E   0.52665  0.97317  0.63306
E29   E   0.52683  0.13306  0.52665
E30   E   0.52683  0.36694  0.02665
E31   E   0.63306  0.52665  0.97317
E32   E   0.63306  0.97335  0.47317
E33   E   0.64360  0.50017  0.35623
E34   E   0.64360  0.99983  0.85623
E35   E   0.64377  0.14360  0.99983
E36   E   0.64377  0.35640  0.49983
E37   E   0.85623  0.64360  0.99983
E38   E   0.85623  0.85640  0.49983
E39   E   0.85640  0.00017  0.35623
E40   E   0.85640  0.49983  0.85623
E41   E   0.86694  0.02665  0.97317
E42   E   0.86694  0.47335  0.47317
E43   E   0.97317  0.63306  0.52665
E44   E   0.97317  0.86694  0.02665
E45   E   0.97335  0.02683  0.13306
E46   E   0.97335  0.47317  0.63306
E47   E   0.99983  0.64377  0.14360
E48   E   0.99983  0.85623  0.64360
loop_
