data_svp_I4/mcm  hall_number: 425, V_con: 7
_audit_creation_date              2025-03-05
_audit_creation_method            'MOFbuilder_1.0'
_symmetry_space_group_name_H-M    'P1'
_symmetry_Int_Tables_number       1
_symmetry_cell_setting            triclinic
loop_
_symmetry_equiv_pos_as_xyz
  x,y,z
_cell_length_a                    43.7102
_cell_length_b                    43.7102
_cell_length_c                    9.9999
_cell_angle_alpha                 90.0
_cell_angle_beta                  90.0
_cell_angle_gamma                 90.0
loop_
_atom_site_label
_atom_site_type_symbol
_atom_site_fract_x
_atom_site_fract_y
_atom_site_fract_z
V1    V   0.09906  0.23916  0.00000
V2    V   0.09906  0.76084  0.50000
V3    V   0.23916  0.09906  0.50000
V4    V   0.23916  0.90094  0.00000
V5    V   0.26084  0.40094  0.00000
V6    V   0.26084  0.59906  0.50000
V7    V   0.40094  0.26084  0.50000
V8    V   0.40094  0.73916  0.00000
V9    V   0.59906  0.26084  0.00000
V10   V   0.59906  0.73916  0.50000
V11   V   0.73916  0.40094  0.50000
V12   V   0.73916  0.59906  0.00000
V13   V   0.76084  0.09906  0.00000
V14   V   0.76084  0.90094  0.50000
V15   V   0.90094  0.23916  0.50000
V16   V   0.90094  0.76084  0.00000
E1    E   0.00000  0.23916  0.25000
E2    E   0.00000  0.23916  0.75000
E3    E   0.00000  0.76084  0.25000
E4    E   0.00000  0.76084  0.75000
E5    E   0.09906  0.23916  0.50000
E6    E   0.09906  0.76084  0.00000
E7    E   0.16911  0.16911  0.25000
E8    E   0.16911  0.16911  0.75000
E9    E   0.16911  0.83089  0.25000
E10   E   0.16911  0.83089  0.75000
E11   E   0.17995  0.32005  0.00000
E12   E   0.17995  0.67995  0.50000
E13   E   0.23916  0.00000  0.25000
E14   E   0.23916  0.00000  0.75000
E15   E   0.23916  0.09906  0.00000
E16   E   0.23916  0.90094  0.50000
E17   E   0.26084  0.40094  0.50000
E18   E   0.26084  0.50000  0.25000
E19   E   0.26084  0.50000  0.75000
E20   E   0.26084  0.59906  0.00000
E21   E   0.32005  0.17995  0.50000
E22   E   0.32005  0.82005  0.00000
E23   E   0.33089  0.33089  0.25000
E24   E   0.33089  0.33089  0.75000
E25   E   0.33089  0.66911  0.25000
E26   E   0.33089  0.66911  0.75000
E27   E   0.40094  0.26084  0.00000
E28   E   0.40094  0.73916  0.50000
E29   E   0.50000  0.26084  0.25000
E30   E   0.50000  0.26084  0.75000
E31   E   0.50000  0.73916  0.25000
E32   E   0.50000  0.73916  0.75000
E33   E   0.59906  0.26084  0.50000
E34   E   0.59906  0.73916  0.00000
E35   E   0.66911  0.33089  0.25000
E36   E   0.66911  0.33089  0.75000
E37   E   0.66911  0.66911  0.25000
E38   E   0.66911  0.66911  0.75000
E39   E   0.67995  0.17995  0.00000
E40   E   0.67995  0.82005  0.50000
E41   E   0.73916  0.40094  0.00000
E42   E   0.73916  0.50000  0.25000
E43   E   0.73916  0.50000  0.75000
E44   E   0.73916  0.59906  0.50000
E45   E   0.76084  0.00000  0.25000
E46   E   0.76084  0.00000  0.75000
E47   E   0.76084  0.09906  0.50000
E48   E   0.76084  0.90094  0.00000
E49   E   0.82005  0.32005  0.50000
E50   E   0.82005  0.67995  0.00000
E51   E   0.83089  0.16911  0.25000
E52   E   0.83089  0.16911  0.75000
E53   E   0.83089  0.83089  0.25000
E54   E   0.83089  0.83089  0.75000
E55   E   0.90094  0.23916  0.00000
E56   E   0.90094  0.76084  0.50000
loop_
