data_svr_I41/amd:2  hall_number: 427, V_con: 7
_audit_creation_date              2025-03-05
_audit_creation_method            'MOFbuilder_1.0'
_symmetry_space_group_name_H-M    'P1'
_symmetry_Int_Tables_number       1
_symmetry_cell_setting            triclinic
loop_
_symmetry_equiv_pos_as_xyz
  x,y,z
_cell_length_a                    43.859899999999996
_cell_length_b                    43.859899999999996
_cell_length_c                    10.0
_cell_angle_alpha                 90.0
_cell_angle_beta                  90.0
_cell_angle_gamma                 90.0
loop_
_atom_site_label
_atom_site_type_symbol
_atom_site_fract_x
_atom_site_fract_y
_atom_site_fract_z
V1    V   0.00000  0.11038  0.12501
V2    V   0.00000  0.38962  0.12501
V3    V   0.00000  0.61038  0.87499
V4    V   0.00000  0.88962  0.87499
V5    V   0.13962  0.25000  0.62499
V6    V   0.13962  0.75000  0.37501
V7    V   0.36038  0.25000  0.87501
V8    V   0.36038  0.75000  0.12499
V9    V   0.50000  0.11038  0.37499
V10   V   0.50000  0.38962  0.37499
V11   V   0.50000  0.61038  0.62501
V12   V   0.50000  0.88962  0.62501
V13   V   0.63962  0.25000  0.87501
V14   V   0.63962  0.75000  0.12499
V15   V   0.86038  0.25000  0.62499
V16   V   0.86038  0.75000  0.37501
E1    E   0.00000  0.00000  0.00000
E2    E   0.00000  0.11038  0.62501
E3    E   0.00000  0.38962  0.62501
E4    E   0.00000  0.50000  0.00000
E5    E   0.00000  0.61038  0.37499
E6    E   0.00000  0.88962  0.37499
E7    E   0.06981  0.18019  0.37500
E8    E   0.06981  0.18019  0.87500
E9    E   0.06981  0.31981  0.37500
E10   E   0.06981  0.31981  0.87500
E11   E   0.06981  0.68019  0.12500
E12   E   0.06981  0.68019  0.62500
E13   E   0.06981  0.81981  0.12500
E14   E   0.06981  0.81981  0.62500
E15   E   0.06981  0.18019  0.37500
E16   E   0.06981  0.18019  0.87500
E17   E   0.06981  0.31981  0.37500
E18   E   0.06981  0.31981  0.87500
E19   E   0.06981  0.68019  0.12500
E20   E   0.06981  0.68019  0.62500
E21   E   0.06981  0.81981  0.12500
E22   E   0.06981  0.81981  0.62500
E23   E   0.13962  0.25000  0.12499
E24   E   0.13962  0.75000  0.87501
E25   E   0.25000  0.25000  0.75000
E26   E   0.25000  0.75000  0.25000
E27   E   0.36038  0.25000  0.37501
E28   E   0.36038  0.75000  0.62499
E29   E   0.43019  0.18019  0.12500
E30   E   0.43019  0.18019  0.62500
E31   E   0.43019  0.31981  0.12500
E32   E   0.43019  0.31981  0.62500
E33   E   0.43019  0.68019  0.37500
E34   E   0.43019  0.68019  0.87500
E35   E   0.43019  0.81981  0.37500
E36   E   0.43019  0.81981  0.87500
E37   E   0.43019  0.18019  0.12500
E38   E   0.43019  0.18019  0.62500
E39   E   0.43019  0.31981  0.12500
E40   E   0.43019  0.31981  0.62500
E41   E   0.43019  0.68019  0.37500
E42   E   0.43019  0.68019  0.87500
E43   E   0.43019  0.81981  0.37500
E44   E   0.43019  0.81981  0.87500
E45   E   0.50000  0.00000  0.50000
E46   E   0.50000  0.11038  0.87499
E47   E   0.50000  0.38962  0.87499
E48   E   0.50000  0.50000  0.50000
E49   E   0.50000  0.61038  0.12501
E50   E   0.50000  0.88962  0.12501
E51   E   0.56981  0.18019  0.12500
E52   E   0.56981  0.18019  0.62500
E53   E   0.56981  0.18019  0.12500
E54   E   0.56981  0.18019  0.62500
E55   E   0.56981  0.31981  0.12500
E56   E   0.56981  0.31981  0.62500
E57   E   0.56981  0.31981  0.12500
E58   E   0.56981  0.31981  0.62500
E59   E   0.56981  0.68019  0.37500
E60   E   0.56981  0.68019  0.87500
E61   E   0.56981  0.81981  0.37500
E62   E   0.56981  0.81981  0.87500
E63   E   0.63962  0.25000  0.37501
E64   E   0.63962  0.75000  0.62499
E65   E   0.75000  0.25000  0.75000
E66   E   0.75000  0.75000  0.25000
E67   E   0.86038  0.25000  0.12499
E68   E   0.86038  0.75000  0.87501
E69   E   0.93019  0.18019  0.37500
E70   E   0.93019  0.18019  0.87500
E71   E   0.93019  0.18019  0.37500
E72   E   0.93019  0.18019  0.87500
E73   E   0.93019  0.31981  0.37500
E74   E   0.93019  0.31981  0.87500
E75   E   0.93019  0.31981  0.37500
E76   E   0.93019  0.31981  0.87500
E77   E   0.93019  0.68019  0.12500
E78   E   0.93019  0.68019  0.62500
E79   E   0.93019  0.81981  0.12500
E80   E   0.93019  0.81981  0.62500
loop_
