data_svs_P4/mcc  hall_number: 401, V_con: 7
_audit_creation_date              2025-03-05
_audit_creation_method            'MOFbuilder_1.0'
_symmetry_space_group_name_H-M    'P1'
_symmetry_Int_Tables_number       1
_symmetry_cell_setting            triclinic
loop_
_symmetry_equiv_pos_as_xyz
  x,y,z
_cell_length_a                    21.474700000000002
_cell_length_b                    21.474700000000002
_cell_length_c                    16.8177
_cell_angle_alpha                 90.0
_cell_angle_beta                  90.0
_cell_angle_gamma                 90.0
loop_
_atom_site_label
_atom_site_type_symbol
_atom_site_fract_x
_atom_site_fract_y
_atom_site_fract_z
V1    V   0.12601  0.30421  0.00000
V2    V   0.12601  0.69579  0.50000
V3    V   0.30421  0.12601  0.50000
V4    V   0.30421  0.87399  0.00000
V5    V   0.69579  0.12601  0.00000
V6    V   0.69579  0.87399  0.50000
V7    V   0.87399  0.30421  0.50000
V8    V   0.87399  0.69579  0.00000
E1    E   0.00000  0.30421  0.25000
E2    E   0.00000  0.30421  0.75000
E3    E   0.00000  0.50000  0.00000
E4    E   0.00000  0.50000  0.50000
E5    E   0.00000  0.69579  0.25000
E6    E   0.00000  0.69579  0.75000
E7    E   0.08910  0.21511  0.50000
E8    E   0.08910  0.78489  0.00000
E9    E   0.21511  0.08910  0.00000
E10   E   0.21511  0.21511  0.25000
E11   E   0.21511  0.21511  0.75000
E12   E   0.21511  0.78489  0.25000
E13   E   0.21511  0.78489  0.75000
E14   E   0.21511  0.91090  0.50000
E15   E   0.30421  0.00000  0.25000
E16   E   0.30421  0.00000  0.75000
E17   E   0.50000  0.00000  0.00000
E18   E   0.50000  0.00000  0.50000
E19   E   0.69579  0.00000  0.25000
E20   E   0.69579  0.00000  0.75000
E21   E   0.78489  0.08910  0.50000
E22   E   0.78489  0.21511  0.25000
E23   E   0.78489  0.21511  0.75000
E24   E   0.78489  0.78489  0.25000
E25   E   0.78489  0.78489  0.75000
E26   E   0.78489  0.91090  0.00000
E27   E   0.91090  0.21511  0.00000
E28   E   0.91090  0.78489  0.50000
loop_
