data_swb_Pn-3n:2  hall_number: 519, V_con: 7
_audit_creation_date              2025-03-05
_audit_creation_method            'MOFbuilder_1.0'
_symmetry_space_group_name_H-M    'P1'
_symmetry_Int_Tables_number       1
_symmetry_cell_setting            triclinic
loop_
_symmetry_equiv_pos_as_xyz
  x,y,z
_cell_length_a                    37.4493
_cell_length_b                    37.4493
_cell_length_c                    37.4493
_cell_angle_alpha                 90.0
_cell_angle_beta                  90.0
_cell_angle_gamma                 90.0
loop_
_atom_site_label
_atom_site_type_symbol
_atom_site_fract_x
_atom_site_fract_y
_atom_site_fract_z
V1    V   0.05511  0.58412  0.65981
V2    V   0.05511  0.65981  0.91588
V3    V   0.05511  0.84019  0.58412
V4    V   0.05511  0.91588  0.84019
V5    V   0.08412  0.15981  0.94489
V6    V   0.08412  0.34019  0.55511
V7    V   0.08412  0.55511  0.15981
V8    V   0.08412  0.94489  0.34019
V9    V   0.15981  0.08412  0.55511
V10   V   0.15981  0.41588  0.94489
V11   V   0.15981  0.55511  0.41588
V12   V   0.15981  0.94489  0.08412
V13   V   0.34019  0.08412  0.94489
V14   V   0.34019  0.41588  0.55511
V15   V   0.34019  0.55511  0.08412
V16   V   0.34019  0.94489  0.41588
V17   V   0.41588  0.15981  0.55511
V18   V   0.41588  0.34019  0.94489
V19   V   0.41588  0.55511  0.34019
V20   V   0.41588  0.94489  0.15981
V21   V   0.44489  0.58412  0.84019
V22   V   0.44489  0.65981  0.58412
V23   V   0.44489  0.84019  0.91588
V24   V   0.44489  0.91588  0.65981
V25   V   0.55511  0.08412  0.34019
V26   V   0.55511  0.15981  0.08412
V27   V   0.55511  0.34019  0.41588
V28   V   0.55511  0.41588  0.15981
V29   V   0.58412  0.05511  0.84019
V30   V   0.58412  0.44489  0.65981
V31   V   0.58412  0.65981  0.05511
V32   V   0.58412  0.84019  0.44489
V33   V   0.65981  0.05511  0.58412
V34   V   0.65981  0.44489  0.91588
V35   V   0.65981  0.58412  0.44489
V36   V   0.65981  0.91588  0.05511
V37   V   0.84019  0.05511  0.91588
V38   V   0.84019  0.44489  0.58412
V39   V   0.84019  0.58412  0.05511
V40   V   0.84019  0.91588  0.44489
V41   V   0.91588  0.05511  0.65981
V42   V   0.91588  0.44489  0.84019
V43   V   0.91588  0.65981  0.44489
V44   V   0.91588  0.84019  0.05511
V45   V   0.94489  0.08412  0.15981
V46   V   0.94489  0.15981  0.41588
V47   V   0.94489  0.34019  0.08412
V48   V   0.94489  0.41588  0.34019
E1    E   0.01450  0.01450  0.25000
E2    E   0.01450  0.25000  0.01450
E3    E   0.01450  0.25000  0.48550
E4    E   0.01450  0.48550  0.25000
E5    E   0.01450  0.01450  0.25000
E6    E   0.01450  0.05235  0.37804
E7    E   0.01450  0.12196  0.05235
E8    E   0.01450  0.25000  0.01450
E9    E   0.01450  0.25000  0.48550
E10   E   0.01450  0.37804  0.44765
E11   E   0.01450  0.44765  0.12196
E12   E   0.01450  0.48550  0.25000
E13   E   0.03785  0.06961  0.60746
E14   E   0.03785  0.43039  0.89254
E15   E   0.03785  0.60746  0.43039
E16   E   0.03785  0.89254  0.06961
E17   E   0.05235  0.01450  0.12196
E18   E   0.05235  0.12196  0.48550
E19   E   0.05235  0.37804  0.01450
E20   E   0.05235  0.48550  0.37804
E21   E   0.05511  0.62196  0.78785
E22   E   0.05511  0.71215  0.62196
E23   E   0.05511  0.78785  0.87804
E24   E   0.05511  0.87804  0.71215
E25   E   0.06961  0.03785  0.89254
E26   E   0.06961  0.46215  0.60746
E27   E   0.06961  0.60746  0.03785
E28   E   0.06961  0.89254  0.46215
E29   E   0.10746  0.53785  0.93039
E30   E   0.10746  0.56961  0.53785
E31   E   0.10746  0.93039  0.96215
E32   E   0.10746  0.96215  0.56961
E33   E   0.12196  0.01450  0.44765
E34   E   0.12196  0.05235  0.01450
E35   E   0.12196  0.21215  0.55511
E36   E   0.12196  0.28785  0.94489
E37   E   0.12196  0.44765  0.48550
E38   E   0.12196  0.48550  0.05235
E39   E   0.12196  0.55511  0.28785
E40   E   0.12196  0.94489  0.21215
E41   E   0.21215  0.12196  0.94489
E42   E   0.21215  0.37804  0.55511
E43   E   0.21215  0.55511  0.12196
E44   E   0.21215  0.94489  0.37804
E45   E   0.25000  0.01450  0.01450
E46   E   0.25000  0.01450  0.48550
E47   E   0.25000  0.01450  0.01450
E48   E   0.25000  0.01450  0.48550
E49   E   0.25000  0.48550  0.01450
E50   E   0.25000  0.48550  0.01450
E51   E   0.25000  0.48550  0.48550
E52   E   0.28785  0.12196  0.55511
E53   E   0.28785  0.37804  0.94489
E54   E   0.28785  0.55511  0.37804
E55   E   0.28785  0.94489  0.12196
E56   E   0.37804  0.01450  0.05235
E57   E   0.37804  0.05235  0.48550
E58   E   0.37804  0.21215  0.94489
E59   E   0.37804  0.28785  0.55511
E60   E   0.37804  0.44765  0.01450
E61   E   0.37804  0.48550  0.44765
E62   E   0.37804  0.55511  0.21215
E63   E   0.37804  0.94489  0.28785
E64   E   0.39254  0.53785  0.56961
E65   E   0.39254  0.56961  0.96215
E66   E   0.39254  0.93039  0.53785
E67   E   0.39254  0.96215  0.93039
E68   E   0.43039  0.03785  0.60746
E69   E   0.43039  0.46215  0.89254
E70   E   0.43039  0.60746  0.46215
E71   E   0.43039  0.89254  0.03785
E72   E   0.44489  0.62196  0.71215
E73   E   0.44489  0.71215  0.87804
E74   E   0.44489  0.78785  0.62196
E75   E   0.44489  0.87804  0.78785
E76   E   0.44765  0.01450  0.37804
E77   E   0.44765  0.12196  0.01450
E78   E   0.44765  0.37804  0.48550
E79   E   0.44765  0.48550  0.12196
E80   E   0.46215  0.06961  0.89254
E81   E   0.46215  0.43039  0.60746
E82   E   0.46215  0.60746  0.06961
E83   E   0.46215  0.89254  0.43039
E84   E   0.48550  0.01450  0.25000
E85   E   0.48550  0.01450  0.25000
E86   E   0.48550  0.05235  0.12196
E87   E   0.48550  0.12196  0.44765
E88   E   0.48550  0.25000  0.01450
E89   E   0.48550  0.25000  0.01450
E90   E   0.48550  0.25000  0.48550
E91   E   0.48550  0.37804  0.05235
E92   E   0.48550  0.44765  0.37804
E93   E   0.48550  0.48550  0.25000
E94   E   0.51450  0.51450  0.75000
E95   E   0.51450  0.55235  0.62196
E96   E   0.51450  0.62196  0.94765
E97   E   0.51450  0.75000  0.51450
E98   E   0.51450  0.75000  0.98550
E99   E   0.51450  0.87804  0.55235
E100  E   0.51450  0.94765  0.87804
E101  E   0.51450  0.98550  0.75000
E102  E   0.53785  0.10746  0.56961
E103  E   0.53785  0.39254  0.93039
E104  E   0.53785  0.56961  0.39254
E105  E   0.53785  0.93039  0.10746
E106  E   0.55235  0.51450  0.87804
E107  E   0.55235  0.62196  0.51450
E108  E   0.55235  0.87804  0.98550
E109  E   0.55235  0.98550  0.62196
E110  E   0.55511  0.12196  0.21215
E111  E   0.55511  0.21215  0.37804
E112  E   0.55511  0.28785  0.12196
E113  E   0.55511  0.37804  0.28785
E114  E   0.56961  0.10746  0.96215
E115  E   0.56961  0.39254  0.53785
E116  E   0.56961  0.53785  0.10746
E117  E   0.56961  0.96215  0.39254
E118  E   0.60746  0.03785  0.06961
E119  E   0.60746  0.06961  0.46215
E120  E   0.60746  0.43039  0.03785
E121  E   0.60746  0.46215  0.43039
E122  E   0.62196  0.05511  0.71215
E123  E   0.62196  0.44489  0.78785
E124  E   0.62196  0.51450  0.55235
E125  E   0.62196  0.55235  0.98550
E126  E   0.62196  0.71215  0.44489
E127  E   0.62196  0.78785  0.05511
E128  E   0.62196  0.94765  0.51450
E129  E   0.62196  0.98550  0.94765
E130  E   0.71215  0.05511  0.87804
E131  E   0.71215  0.44489  0.62196
E132  E   0.71215  0.62196  0.05511
E133  E   0.71215  0.87804  0.44489
E134  E   0.75000  0.51450  0.51450
E135  E   0.75000  0.51450  0.98550
E136  E   0.75000  0.98550  0.51450
E137  E   0.75000  0.98550  0.98550
E138  E   0.78785  0.05511  0.62196
E139  E   0.78785  0.44489  0.87804
E140  E   0.78785  0.62196  0.44489
E141  E   0.78785  0.87804  0.05511
E142  E   0.87804  0.05511  0.78785
E143  E   0.87804  0.44489  0.71215
E144  E   0.87804  0.51450  0.94765
E145  E   0.87804  0.55235  0.51450
E146  E   0.87804  0.71215  0.05511
E147  E   0.87804  0.78785  0.44489
E148  E   0.87804  0.94765  0.98550
E149  E   0.87804  0.98550  0.55235
E150  E   0.89254  0.03785  0.43039
E151  E   0.89254  0.06961  0.03785
E152  E   0.89254  0.43039  0.46215
E153  E   0.89254  0.46215  0.06961
E154  E   0.93039  0.10746  0.53785
E155  E   0.93039  0.39254  0.96215
E156  E   0.93039  0.53785  0.39254
E157  E   0.93039  0.96215  0.10746
E158  E   0.94489  0.12196  0.28785
E159  E   0.94489  0.21215  0.12196
E160  E   0.94489  0.28785  0.37804
E161  E   0.94489  0.37804  0.21215
E162  E   0.94765  0.51450  0.62196
E163  E   0.94765  0.62196  0.98550
E164  E   0.94765  0.87804  0.51450
E165  E   0.94765  0.98550  0.87804
E166  E   0.96215  0.10746  0.93039
E167  E   0.96215  0.39254  0.56961
E168  E   0.96215  0.56961  0.10746
E169  E   0.96215  0.93039  0.39254
E170  E   0.98550  0.51450  0.75000
E171  E   0.98550  0.55235  0.87804
E172  E   0.98550  0.62196  0.55235
E173  E   0.98550  0.75000  0.51450
E174  E   0.98550  0.75000  0.98550
E175  E   0.98550  0.87804  0.94765
E176  E   0.98550  0.94765  0.62196
E177  E   0.98550  0.98550  0.75000
loop_
