data_swn_I4132  hall_number: 510, V_con: 7
_audit_creation_date              2025-03-05
_audit_creation_method            'MOFbuilder_1.0'
_symmetry_space_group_name_H-M    'P1'
_symmetry_Int_Tables_number       1
_symmetry_cell_setting            triclinic
loop_
_symmetry_equiv_pos_as_xyz
  x,y,z
_cell_length_a                    42.755599999999994
_cell_length_b                    42.755599999999994
_cell_length_c                    42.755599999999994
_cell_angle_alpha                 90.0
_cell_angle_beta                  90.0
_cell_angle_gamma                 90.0
loop_
_atom_site_label
_atom_site_type_symbol
_atom_site_fract_x
_atom_site_fract_y
_atom_site_fract_z
V1    V   0.01448  0.18569  0.53632
V2    V   0.01448  0.81431  0.96368
V3    V   0.03632  0.48552  0.81431
V4    V   0.03632  0.51448  0.68569
V5    V   0.06431  0.23552  0.71368
V6    V   0.06431  0.76448  0.78632
V7    V   0.18569  0.46368  0.48552
V8    V   0.18569  0.53632  0.01448
V9    V   0.21368  0.43569  0.76448
V10   V   0.21368  0.56431  0.73552
V11   V   0.23552  0.28632  0.43569
V12   V   0.23552  0.71368  0.06431
V13   V   0.26448  0.28632  0.56431
V14   V   0.26448  0.71368  0.93569
V15   V   0.28632  0.43569  0.23552
V16   V   0.28632  0.56431  0.26448
V17   V   0.31431  0.46368  0.51448
V18   V   0.31431  0.53632  0.98552
V19   V   0.43569  0.23552  0.28632
V20   V   0.43569  0.76448  0.21368
V21   V   0.46368  0.48552  0.18569
V22   V   0.46368  0.51448  0.31431
V23   V   0.48552  0.18569  0.46368
V24   V   0.48552  0.81431  0.03632
V25   V   0.51448  0.31431  0.46368
V26   V   0.51448  0.68569  0.03632
V27   V   0.53632  0.01448  0.18569
V28   V   0.53632  0.98552  0.31431
V29   V   0.56431  0.26448  0.28632
V30   V   0.56431  0.73552  0.21368
V31   V   0.68569  0.03632  0.51448
V32   V   0.68569  0.96368  0.98552
V33   V   0.71368  0.06431  0.23552
V34   V   0.71368  0.93569  0.26448
V35   V   0.73552  0.21368  0.56431
V36   V   0.73552  0.78632  0.93569
V37   V   0.76448  0.21368  0.43569
V38   V   0.76448  0.78632  0.06431
V39   V   0.78632  0.06431  0.76448
V40   V   0.78632  0.93569  0.73552
V41   V   0.81431  0.03632  0.48552
V42   V   0.81431  0.96368  0.01448
V43   V   0.93569  0.26448  0.71368
V44   V   0.93569  0.73552  0.78632
V45   V   0.96368  0.01448  0.81431
V46   V   0.96368  0.98552  0.68569
V47   V   0.98552  0.31431  0.53632
V48   V   0.98552  0.68569  0.96368
E1    E   0.00000  0.25000  0.53632
E2    E   0.00000  0.25000  0.71368
E3    E   0.00000  0.75000  0.78632
E4    E   0.00000  0.75000  0.96368
E5    E   0.01092  0.41439  0.61100
E6    E   0.01092  0.58561  0.88900
E7    E   0.01400  0.11052  0.69969
E8    E   0.01400  0.12500  0.76400
E9    E   0.01400  0.87500  0.73600
E10   E   0.01400  0.88948  0.80031
E11   E   0.03632  0.50000  0.75000
E12   E   0.03939  0.21061  0.62500
E13   E   0.03939  0.78939  0.87500
E14   E   0.03939  0.21061  0.62500
E15   E   0.03939  0.78939  0.87500
E16   E   0.05031  0.36052  0.76400
E17   E   0.05031  0.63948  0.73600
E18   E   0.08561  0.38900  0.51092
E19   E   0.08561  0.61100  0.98908
E20   E   0.11052  0.30031  0.48600
E21   E   0.11052  0.69969  0.01400
E22   E   0.11100  0.48908  0.58561
E23   E   0.11100  0.51092  0.91439
E24   E   0.12500  0.23600  0.48600
E25   E   0.12500  0.46061  0.78939
E26   E   0.12500  0.46061  0.78939
E27   E   0.12500  0.53939  0.71061
E28   E   0.12500  0.76400  0.01400
E29   E   0.13900  0.33561  0.73908
E30   E   0.13900  0.66439  0.76092
E31   E   0.13948  0.23600  0.55031
E32   E   0.13948  0.76400  0.94969
E33   E   0.16439  0.26092  0.63900
E34   E   0.16439  0.73908  0.86100
E35   E   0.19969  0.48600  0.88948
E36   E   0.19969  0.51400  0.61052
E37   E   0.21061  0.37500  0.46061
E38   E   0.21061  0.37500  0.46061
E39   E   0.21061  0.62500  0.03939
E40   E   0.21061  0.62500  0.03939
E41   E   0.21368  0.50000  0.75000
E42   E   0.23600  0.44969  0.36052
E43   E   0.23600  0.48600  0.12500
E44   E   0.23600  0.51400  0.37500
E45   E   0.23600  0.55031  0.13948
E46   E   0.23908  0.36100  0.66439
E47   E   0.23908  0.63900  0.83561
E48   E   0.25000  0.28632  0.50000
E49   E   0.25000  0.46368  0.50000
E50   E   0.25000  0.53632  0.00000
E51   E   0.25000  0.71368  0.00000
E52   E   0.26092  0.36100  0.33561
E53   E   0.26092  0.63900  0.16439
E54   E   0.26400  0.44969  0.63948
E55   E   0.26400  0.48600  0.87500
E56   E   0.26400  0.51400  0.62500
E57   E   0.26400  0.55031  0.86052
E58   E   0.28632  0.50000  0.25000
E59   E   0.28939  0.37500  0.53939
E60   E   0.28939  0.62500  0.96061
E61   E   0.28939  0.37500  0.53939
E62   E   0.28939  0.62500  0.96061
E63   E   0.30031  0.48600  0.11052
E64   E   0.30031  0.51400  0.38948
E65   E   0.33561  0.26092  0.36100
E66   E   0.33561  0.73908  0.13900
E67   E   0.36052  0.23600  0.44969
E68   E   0.36052  0.76400  0.05031
E69   E   0.36100  0.33561  0.26092
E70   E   0.36100  0.66439  0.23908
E71   E   0.37500  0.23600  0.51400
E72   E   0.37500  0.46061  0.21061
E73   E   0.37500  0.46061  0.21061
E74   E   0.37500  0.53939  0.28939
E75   E   0.37500  0.53939  0.28939
E76   E   0.37500  0.76400  0.98600
E77   E   0.38900  0.48908  0.41439
E78   E   0.38900  0.51092  0.08561
E79   E   0.38948  0.30031  0.51400
E80   E   0.38948  0.69969  0.98600
E81   E   0.41439  0.38900  0.48908
E82   E   0.41439  0.61100  0.01092
E83   E   0.44969  0.36052  0.23600
E84   E   0.44969  0.63948  0.26400
E85   E   0.46061  0.21061  0.37500
E86   E   0.46061  0.78939  0.12500
E87   E   0.46061  0.21061  0.37500
E88   E   0.46061  0.78939  0.12500
E89   E   0.46368  0.50000  0.25000
E90   E   0.48600  0.11052  0.30031
E91   E   0.48600  0.12500  0.23600
E92   E   0.48600  0.87500  0.26400
E93   E   0.48600  0.88948  0.19969
E94   E   0.48908  0.41439  0.38900
E95   E   0.48908  0.58561  0.11100
E96   E   0.50000  0.25000  0.28632
E97   E   0.50000  0.25000  0.46368
E98   E   0.50000  0.75000  0.03632
E99   E   0.50000  0.75000  0.21368
E100  E   0.51092  0.08561  0.38900
E101  E   0.51092  0.91439  0.11100
E102  E   0.51400  0.37500  0.23600
E103  E   0.51400  0.38948  0.30031
E104  E   0.51400  0.61052  0.19969
E105  E   0.51400  0.62500  0.26400
E106  E   0.53632  0.00000  0.25000
E107  E   0.53939  0.28939  0.37500
E108  E   0.53939  0.28939  0.37500
E109  E   0.53939  0.71061  0.12500
E110  E   0.55031  0.13948  0.23600
E111  E   0.55031  0.86052  0.26400
E112  E   0.58561  0.11100  0.48908
E113  E   0.58561  0.88900  0.01092
E114  E   0.61052  0.19969  0.51400
E115  E   0.61052  0.80031  0.98600
E116  E   0.61100  0.01092  0.41439
E117  E   0.61100  0.98908  0.08561
E118  E   0.62500  0.03939  0.21061
E119  E   0.62500  0.03939  0.21061
E120  E   0.62500  0.26400  0.51400
E121  E   0.62500  0.73600  0.98600
E122  E   0.62500  0.96061  0.28939
E123  E   0.62500  0.96061  0.28939
E124  E   0.63900  0.16439  0.26092
E125  E   0.63900  0.83561  0.23908
E126  E   0.63948  0.26400  0.44969
E127  E   0.63948  0.73600  0.05031
E128  E   0.66439  0.23908  0.36100
E129  E   0.66439  0.76092  0.13900
E130  E   0.69969  0.01400  0.11052
E131  E   0.69969  0.98600  0.38948
E132  E   0.71061  0.12500  0.53939
E133  E   0.71061  0.87500  0.96061
E134  E   0.71368  0.00000  0.25000
E135  E   0.73600  0.01400  0.87500
E136  E   0.73600  0.05031  0.63948
E137  E   0.73600  0.94969  0.86052
E138  E   0.73600  0.98600  0.62500
E139  E   0.73908  0.13900  0.33561
E140  E   0.73908  0.86100  0.16439
E141  E   0.75000  0.03632  0.50000
E142  E   0.75000  0.21368  0.50000
E143  E   0.75000  0.78632  0.00000
E144  E   0.75000  0.96368  0.00000
E145  E   0.76092  0.13900  0.66439
E146  E   0.76092  0.86100  0.83561
E147  E   0.76400  0.01400  0.12500
E148  E   0.76400  0.05031  0.36052
E149  E   0.76400  0.94969  0.13948
E150  E   0.76400  0.98600  0.37500
E151  E   0.78632  0.00000  0.75000
E152  E   0.78939  0.12500  0.46061
E153  E   0.78939  0.12500  0.46061
E154  E   0.78939  0.87500  0.03939
E155  E   0.78939  0.87500  0.03939
E156  E   0.80031  0.01400  0.88948
E157  E   0.80031  0.98600  0.61052
E158  E   0.83561  0.23908  0.63900
E159  E   0.83561  0.76092  0.86100
E160  E   0.86052  0.26400  0.55031
E161  E   0.86052  0.73600  0.94969
E162  E   0.86100  0.16439  0.73908
E163  E   0.86100  0.83561  0.76092
E164  E   0.87500  0.03939  0.78939
E165  E   0.87500  0.03939  0.78939
E166  E   0.87500  0.26400  0.48600
E167  E   0.87500  0.73600  0.01400
E168  E   0.87500  0.96061  0.71061
E169  E   0.88900  0.01092  0.58561
E170  E   0.88900  0.98908  0.91439
E171  E   0.88948  0.19969  0.48600
E172  E   0.88948  0.80031  0.01400
E173  E   0.91439  0.11100  0.51092
E174  E   0.91439  0.88900  0.98908
E175  E   0.94969  0.13948  0.76400
E176  E   0.94969  0.86052  0.73600
E177  E   0.96061  0.28939  0.62500
E178  E   0.96061  0.28939  0.62500
E179  E   0.96061  0.71061  0.87500
E180  E   0.96368  0.00000  0.75000
E181  E   0.98600  0.37500  0.76400
E182  E   0.98600  0.38948  0.69969
E183  E   0.98600  0.61052  0.80031
E184  E   0.98600  0.62500  0.73600
E185  E   0.98908  0.08561  0.61100
E186  E   0.98908  0.91439  0.88900
loop_
