data_swp_I4132  hall_number: 510, V_con: 7
_audit_creation_date              2025-03-05
_audit_creation_method            'MOFbuilder_1.0'
_symmetry_space_group_name_H-M    'P1'
_symmetry_Int_Tables_number       1
_symmetry_cell_setting            triclinic
loop_
_symmetry_equiv_pos_as_xyz
  x,y,z
_cell_length_a                    36.818599999999996
_cell_length_b                    36.818599999999996
_cell_length_c                    36.818599999999996
_cell_angle_alpha                 90.0
_cell_angle_beta                  90.0
_cell_angle_gamma                 90.0
loop_
_atom_site_label
_atom_site_type_symbol
_atom_site_fract_x
_atom_site_fract_y
_atom_site_fract_z
V1    V   0.00682  0.39278  0.88301
V2    V   0.00682  0.60722  0.61699
V3    V   0.10722  0.11699  0.50682
V4    V   0.10722  0.88301  0.99318
V5    V   0.11699  0.49318  0.39278
V6    V   0.11699  0.50682  0.10722
V7    V   0.13301  0.14278  0.74318
V8    V   0.13301  0.85722  0.75682
V9    V   0.14278  0.25682  0.36699
V10   V   0.14278  0.74318  0.13301
V11   V   0.24318  0.36699  0.85722
V12   V   0.24318  0.63301  0.64278
V13   V   0.25682  0.36699  0.14278
V14   V   0.25682  0.63301  0.35722
V15   V   0.35722  0.25682  0.63301
V16   V   0.35722  0.74318  0.86699
V17   V   0.36699  0.14278  0.25682
V18   V   0.36699  0.85722  0.24318
V19   V   0.38301  0.49318  0.60722
V20   V   0.38301  0.50682  0.89278
V21   V   0.39278  0.11699  0.49318
V22   V   0.39278  0.88301  0.00682
V23   V   0.49318  0.39278  0.11699
V24   V   0.49318  0.60722  0.38301
V25   V   0.50682  0.10722  0.11699
V26   V   0.50682  0.89278  0.38301
V27   V   0.60722  0.38301  0.49318
V28   V   0.60722  0.61699  0.00682
V29   V   0.61699  0.00682  0.60722
V30   V   0.61699  0.99318  0.89278
V31   V   0.63301  0.35722  0.25682
V32   V   0.63301  0.64278  0.24318
V33   V   0.64278  0.24318  0.63301
V34   V   0.64278  0.75682  0.86699
V35   V   0.74318  0.13301  0.14278
V36   V   0.74318  0.86699  0.35722
V37   V   0.75682  0.13301  0.85722
V38   V   0.75682  0.86699  0.64278
V39   V   0.85722  0.24318  0.36699
V40   V   0.85722  0.75682  0.13301
V41   V   0.86699  0.35722  0.74318
V42   V   0.86699  0.64278  0.75682
V43   V   0.88301  0.00682  0.39278
V44   V   0.88301  0.99318  0.10722
V45   V   0.89278  0.38301  0.50682
V46   V   0.89278  0.61699  0.99318
V47   V   0.99318  0.10722  0.88301
V48   V   0.99318  0.89278  0.61699
E1    E   0.00000  0.25000  0.36699
E2    E   0.00000  0.25000  0.88301
E3    E   0.00000  0.75000  0.13301
E4    E   0.00000  0.75000  0.61699
E5    E   0.00489  0.43810  0.44980
E6    E   0.00489  0.56190  0.05020
E7    E   0.01778  0.31991  0.43690
E8    E   0.01778  0.68009  0.06310
E9    E   0.05020  0.00489  0.56190
E10   E   0.05020  0.99511  0.93810
E11   E   0.06190  0.44980  0.99511
E12   E   0.06190  0.55020  0.50489
E13   E   0.06310  0.01778  0.68009
E14   E   0.06310  0.12500  0.81310
E15   E   0.06310  0.87500  0.68690
E16   E   0.06310  0.98222  0.81991
E17   E   0.06991  0.26778  0.81310
E18   E   0.06991  0.73222  0.68690
E19   E   0.11699  0.50000  0.25000
E20   E   0.12011  0.12989  0.62500
E21   E   0.12011  0.12989  0.62500
E22   E   0.12011  0.87011  0.87500
E23   E   0.12500  0.18690  0.43690
E24   E   0.12500  0.18690  0.43690
E25   E   0.12500  0.37989  0.87011
E26   E   0.12500  0.62011  0.62989
E27   E   0.12500  0.81310  0.06310
E28   E   0.12989  0.37500  0.37989
E29   E   0.12989  0.62500  0.12011
E30   E   0.12989  0.37500  0.37989
E31   E   0.12989  0.62500  0.12011
E32   E   0.13301  0.00000  0.75000
E33   E   0.18009  0.43690  0.98222
E34   E   0.18009  0.56310  0.51778
E35   E   0.18690  0.43009  0.26778
E36   E   0.18690  0.43690  0.12500
E37   E   0.18690  0.56310  0.37500
E38   E   0.18690  0.56991  0.23222
E39   E   0.18690  0.43690  0.12500
E40   E   0.18690  0.56310  0.37500
E41   E   0.18810  0.25489  0.80020
E42   E   0.18810  0.74511  0.69980
E43   E   0.19980  0.31190  0.25489
E44   E   0.19980  0.68810  0.24511
E45   E   0.23222  0.18690  0.56991
E46   E   0.23222  0.81310  0.93009
E47   E   0.24511  0.19980  0.68810
E48   E   0.24511  0.80020  0.81190
E49   E   0.25000  0.11699  0.50000
E50   E   0.25000  0.36699  0.00000
E51   E   0.25000  0.63301  0.50000
E52   E   0.25000  0.88301  0.00000
E53   E   0.25489  0.19980  0.31190
E54   E   0.25489  0.80020  0.18810
E55   E   0.26778  0.18690  0.43009
E56   E   0.26778  0.81310  0.06991
E57   E   0.30020  0.31190  0.74511
E58   E   0.30020  0.68810  0.75489
E59   E   0.31190  0.25489  0.19980
E60   E   0.31190  0.74511  0.30020
E61   E   0.31310  0.43009  0.73222
E62   E   0.31310  0.43690  0.87500
E63   E   0.31310  0.56310  0.62500
E64   E   0.31310  0.56991  0.76778
E65   E   0.31991  0.43690  0.01778
E66   E   0.31991  0.56310  0.48222
E67   E   0.36699  0.00000  0.25000
E68   E   0.37011  0.37500  0.62011
E69   E   0.37011  0.62500  0.87989
E70   E   0.37500  0.18690  0.56310
E71   E   0.37500  0.18690  0.56310
E72   E   0.37500  0.37989  0.12989
E73   E   0.37500  0.37989  0.12989
E74   E   0.37500  0.62011  0.37011
E75   E   0.37500  0.81310  0.93690
E76   E   0.37989  0.12989  0.37500
E77   E   0.37989  0.12989  0.37500
E78   E   0.37989  0.87011  0.12500
E79   E   0.38301  0.50000  0.75000
E80   E   0.43009  0.26778  0.18690
E81   E   0.43009  0.73222  0.31310
E82   E   0.43690  0.01778  0.31991
E83   E   0.43690  0.12500  0.18690
E84   E   0.43690  0.12500  0.18690
E85   E   0.43690  0.87500  0.31310
E86   E   0.43690  0.98222  0.18009
E87   E   0.43810  0.44980  0.00489
E88   E   0.43810  0.55020  0.49511
E89   E   0.44980  0.00489  0.43810
E90   E   0.44980  0.99511  0.06190
E91   E   0.48222  0.31991  0.56310
E92   E   0.48222  0.68009  0.93690
E93   E   0.49511  0.43810  0.55020
E94   E   0.49511  0.56190  0.94980
E95   E   0.50000  0.25000  0.11699
E96   E   0.50000  0.25000  0.63301
E97   E   0.50000  0.75000  0.38301
E98   E   0.50000  0.75000  0.86699
E99   E   0.50489  0.06190  0.55020
E100  E   0.50489  0.93810  0.94980
E101  E   0.51778  0.18009  0.56310
E102  E   0.51778  0.81991  0.93690
E103  E   0.55020  0.49511  0.43810
E104  E   0.55020  0.50489  0.06190
E105  E   0.56190  0.05020  0.00489
E106  E   0.56190  0.94980  0.49511
E107  E   0.56310  0.37500  0.18690
E108  E   0.56310  0.37500  0.18690
E109  E   0.56310  0.48222  0.31991
E110  E   0.56310  0.51778  0.18009
E111  E   0.56310  0.62500  0.31310
E112  E   0.56991  0.23222  0.18690
E113  E   0.56991  0.76778  0.31310
E114  E   0.61699  0.00000  0.75000
E115  E   0.62011  0.37011  0.37500
E116  E   0.62011  0.62989  0.12500
E117  E   0.62500  0.12011  0.12989
E118  E   0.62500  0.12011  0.12989
E119  E   0.62500  0.31310  0.56310
E120  E   0.62500  0.68690  0.93690
E121  E   0.62500  0.87989  0.37011
E122  E   0.62989  0.12500  0.62011
E123  E   0.62989  0.87500  0.87989
E124  E   0.63301  0.50000  0.25000
E125  E   0.68009  0.06310  0.01778
E126  E   0.68009  0.93690  0.48222
E127  E   0.68690  0.06310  0.87500
E128  E   0.68690  0.06991  0.73222
E129  E   0.68690  0.93009  0.76778
E130  E   0.68690  0.93690  0.62500
E131  E   0.68810  0.24511  0.19980
E132  E   0.68810  0.75489  0.30020
E133  E   0.69980  0.18810  0.74511
E134  E   0.69980  0.81190  0.75489
E135  E   0.73222  0.31310  0.43009
E136  E   0.73222  0.68690  0.06991
E137  E   0.74511  0.30020  0.31190
E138  E   0.74511  0.69980  0.18810
E139  E   0.75000  0.13301  0.00000
E140  E   0.75000  0.38301  0.50000
E141  E   0.75000  0.61699  0.00000
E142  E   0.75000  0.86699  0.50000
E143  E   0.75489  0.30020  0.68810
E144  E   0.75489  0.69980  0.81190
E145  E   0.76778  0.31310  0.56991
E146  E   0.76778  0.68690  0.93009
E147  E   0.80020  0.18810  0.25489
E148  E   0.80020  0.81190  0.24511
E149  E   0.81190  0.24511  0.80020
E150  E   0.81190  0.75489  0.69980
E151  E   0.81310  0.06310  0.12500
E152  E   0.81310  0.06991  0.26778
E153  E   0.81310  0.93009  0.23222
E154  E   0.81310  0.93690  0.37500
E155  E   0.81991  0.06310  0.98222
E156  E   0.81991  0.93690  0.51778
E157  E   0.86699  0.50000  0.75000
E158  E   0.87011  0.12500  0.37989
E159  E   0.87011  0.87500  0.12011
E160  E   0.87500  0.12011  0.87011
E161  E   0.87500  0.31310  0.43690
E162  E   0.87500  0.68690  0.06310
E163  E   0.87500  0.87989  0.62989
E164  E   0.87989  0.37011  0.62500
E165  E   0.87989  0.62989  0.87500
E166  E   0.88301  0.00000  0.25000
E167  E   0.93009  0.23222  0.81310
E168  E   0.93009  0.76778  0.68690
E169  E   0.93690  0.37500  0.81310
E170  E   0.93690  0.48222  0.68009
E171  E   0.93690  0.51778  0.81991
E172  E   0.93690  0.62500  0.68690
E173  E   0.93810  0.05020  0.99511
E174  E   0.93810  0.94980  0.50489
E175  E   0.94980  0.49511  0.56190
E176  E   0.94980  0.50489  0.93810
E177  E   0.98222  0.18009  0.43690
E178  E   0.98222  0.81991  0.06310
E179  E   0.99511  0.06190  0.44980
E180  E   0.99511  0.93810  0.05020
loop_
