data_sxg_Pa-3  hall_number: 501, V_con: 6
_audit_creation_date              2025-03-05
_audit_creation_method            'MOFbuilder_1.0'
_symmetry_space_group_name_H-M    'P1'
_symmetry_Int_Tables_number       1
_symmetry_cell_setting            triclinic
loop_
_symmetry_equiv_pos_as_xyz
  x,y,z
_cell_length_a                    29.136899999999997
_cell_length_b                    29.136899999999997
_cell_length_c                    29.136899999999997
_cell_angle_alpha                 90.0
_cell_angle_beta                  90.0
_cell_angle_gamma                 90.0
loop_
_atom_site_label
_atom_site_type_symbol
_atom_site_fract_x
_atom_site_fract_y
_atom_site_fract_z
V1    V   0.03408  0.19203  0.72234
V2    V   0.03408  0.30797  0.22234
V3    V   0.19203  0.72234  0.03408
V4    V   0.19203  0.77766  0.53408
V5    V   0.22234  0.03408  0.30797
V6    V   0.22234  0.46592  0.80797
V7    V   0.27766  0.53408  0.30797
V8    V   0.27766  0.96592  0.80797
V9    V   0.30797  0.22234  0.03408
V10   V   0.30797  0.27766  0.53408
V11   V   0.46592  0.69203  0.72234
V12   V   0.46592  0.80797  0.22234
V13   V   0.53408  0.19203  0.77766
V14   V   0.53408  0.30797  0.27766
V15   V   0.69203  0.72234  0.46592
V16   V   0.69203  0.77766  0.96592
V17   V   0.72234  0.03408  0.19203
V18   V   0.72234  0.46592  0.69203
V19   V   0.77766  0.53408  0.19203
V20   V   0.77766  0.96592  0.69203
V21   V   0.80797  0.22234  0.46592
V22   V   0.80797  0.27766  0.96592
V23   V   0.96592  0.69203  0.77766
V24   V   0.96592  0.80797  0.27766
E1    E   0.07898  0.70718  0.90587
E2    E   0.07898  0.73485  0.65587
E3    E   0.07898  0.76515  0.15587
E4    E   0.07898  0.79282  0.40587
E5    E   0.09413  0.57898  0.79282
E6    E   0.09413  0.92102  0.29282
E7    E   0.12821  0.17102  0.26515
E8    E   0.12821  0.32898  0.76515
E9    E   0.15587  0.07898  0.76515
E10   E   0.15587  0.42102  0.26515
E11   E   0.17102  0.23485  0.62821
E12   E   0.17102  0.26515  0.12821
E13   E   0.20718  0.59413  0.92102
E14   E   0.20718  0.90587  0.42102
E15   E   0.23485  0.62821  0.17102
E16   E   0.23485  0.65587  0.42102
E17   E   0.23485  0.84413  0.92102
E18   E   0.23485  0.87179  0.67102
E19   E   0.26515  0.12821  0.17102
E20   E   0.26515  0.15587  0.42102
E21   E   0.26515  0.34413  0.92102
E22   E   0.26515  0.37179  0.67102
E23   E   0.29282  0.09413  0.92102
E24   E   0.29282  0.40587  0.42102
E25   E   0.32898  0.73485  0.62821
E26   E   0.32898  0.76515  0.12821
E27   E   0.34413  0.57898  0.76515
E28   E   0.34413  0.92102  0.26515
E29   E   0.37179  0.67102  0.26515
E30   E   0.37179  0.82898  0.76515
E31   E   0.40587  0.07898  0.79282
E32   E   0.40587  0.42102  0.29282
E33   E   0.42102  0.20718  0.90587
E34   E   0.42102  0.23485  0.65587
E35   E   0.42102  0.26515  0.15587
E36   E   0.42102  0.29282  0.40587
E37   E   0.57898  0.70718  0.59413
E38   E   0.57898  0.73485  0.84413
E39   E   0.57898  0.76515  0.34413
E40   E   0.57898  0.79282  0.09413
E41   E   0.59413  0.57898  0.70718
E42   E   0.59413  0.92102  0.20718
E43   E   0.62821  0.17102  0.23485
E44   E   0.62821  0.32898  0.73485
E45   E   0.65587  0.07898  0.73485
E46   E   0.65587  0.42102  0.23485
E47   E   0.67102  0.23485  0.87179
E48   E   0.67102  0.26515  0.37179
E49   E   0.70718  0.59413  0.57898
E50   E   0.70718  0.90587  0.07898
E51   E   0.73485  0.62821  0.32898
E52   E   0.73485  0.65587  0.07898
E53   E   0.73485  0.84413  0.57898
E54   E   0.73485  0.87179  0.82898
E55   E   0.76515  0.12821  0.32898
E56   E   0.76515  0.15587  0.07898
E57   E   0.76515  0.34413  0.57898
E58   E   0.76515  0.37179  0.82898
E59   E   0.79282  0.09413  0.57898
E60   E   0.79282  0.40587  0.07898
E61   E   0.82898  0.73485  0.87179
E62   E   0.82898  0.76515  0.37179
E63   E   0.84413  0.57898  0.73485
E64   E   0.84413  0.92102  0.23485
E65   E   0.87179  0.67102  0.23485
E66   E   0.87179  0.82898  0.73485
E67   E   0.90587  0.07898  0.70718
E68   E   0.90587  0.42102  0.20718
E69   E   0.92102  0.20718  0.59413
E70   E   0.92102  0.23485  0.84413
E71   E   0.92102  0.26515  0.34413
E72   E   0.92102  0.29282  0.09413
loop_
