data_sxh_Ia-3  hall_number: 502, V_con: 6
_audit_creation_date              2025-03-05
_audit_creation_method            'MOFbuilder_1.0'
_symmetry_space_group_name_H-M    'P1'
_symmetry_Int_Tables_number       1
_symmetry_cell_setting            triclinic
loop_
_symmetry_equiv_pos_as_xyz
  x,y,z
_cell_length_a                    34.779399999999995
_cell_length_b                    34.779399999999995
_cell_length_c                    34.779399999999995
_cell_angle_alpha                 90.0
_cell_angle_beta                  90.0
_cell_angle_gamma                 90.0
loop_
_atom_site_label
_atom_site_type_symbol
_atom_site_fract_x
_atom_site_fract_y
_atom_site_fract_z
V1    V   0.08260  0.13234  0.30617
V2    V   0.08260  0.36766  0.80617
V3    V   0.08260  0.63234  0.69383
V4    V   0.08260  0.86766  0.19383
V5    V   0.13234  0.19383  0.58260
V6    V   0.13234  0.30617  0.08260
V7    V   0.13234  0.69383  0.41740
V8    V   0.13234  0.80617  0.91740
V9    V   0.19383  0.08260  0.86766
V10   V   0.19383  0.41740  0.36766
V11   V   0.19383  0.58260  0.13234
V12   V   0.19383  0.91740  0.63234
V13   V   0.30617  0.08260  0.13234
V14   V   0.30617  0.41740  0.63234
V15   V   0.30617  0.58260  0.86766
V16   V   0.30617  0.91740  0.36766
V17   V   0.36766  0.19383  0.41740
V18   V   0.36766  0.30617  0.91740
V19   V   0.36766  0.69383  0.58260
V20   V   0.36766  0.80617  0.08260
V21   V   0.41740  0.13234  0.69383
V22   V   0.41740  0.36766  0.19383
V23   V   0.41740  0.63234  0.30617
V24   V   0.41740  0.86766  0.80617
V25   V   0.58260  0.13234  0.19383
V26   V   0.58260  0.36766  0.69383
V27   V   0.58260  0.63234  0.80617
V28   V   0.58260  0.86766  0.30617
V29   V   0.63234  0.19383  0.91740
V30   V   0.63234  0.30617  0.41740
V31   V   0.63234  0.69383  0.08260
V32   V   0.63234  0.80617  0.58260
V33   V   0.69383  0.08260  0.63234
V34   V   0.69383  0.41740  0.13234
V35   V   0.69383  0.58260  0.36766
V36   V   0.69383  0.91740  0.86766
V37   V   0.80617  0.08260  0.36766
V38   V   0.80617  0.41740  0.86766
V39   V   0.80617  0.58260  0.63234
V40   V   0.80617  0.91740  0.13234
V41   V   0.86766  0.19383  0.08260
V42   V   0.86766  0.30617  0.58260
V43   V   0.86766  0.69383  0.91740
V44   V   0.86766  0.80617  0.41740
V45   V   0.91740  0.13234  0.80617
V46   V   0.91740  0.36766  0.30617
V47   V   0.91740  0.63234  0.19383
V48   V   0.91740  0.86766  0.69383
E1    E   0.00000  0.25000  0.08260
E2    E   0.00000  0.25000  0.30617
E3    E   0.00000  0.25000  0.58260
E4    E   0.00000  0.25000  0.80617
E5    E   0.00000  0.75000  0.19383
E6    E   0.00000  0.75000  0.41740
E7    E   0.00000  0.75000  0.69383
E8    E   0.00000  0.75000  0.91740
E9    E   0.05562  0.10747  0.83692
E10   E   0.05562  0.39253  0.33692
E11   E   0.05562  0.60747  0.16308
E12   E   0.05562  0.89253  0.66308
E13   E   0.08260  0.00000  0.25000
E14   E   0.08260  0.50000  0.75000
E15   E   0.10747  0.16308  0.44438
E16   E   0.10747  0.21925  0.19438
E17   E   0.10747  0.28075  0.69438
E18   E   0.10747  0.33692  0.94438
E19   E   0.10747  0.66308  0.55562
E20   E   0.10747  0.71925  0.80562
E21   E   0.10747  0.78075  0.30562
E22   E   0.10747  0.83692  0.05562
E23   E   0.16308  0.05562  0.60747
E24   E   0.16308  0.44438  0.10747
E25   E   0.16308  0.55562  0.39253
E26   E   0.16308  0.94438  0.89253
E27   E   0.19383  0.00000  0.75000
E28   E   0.19383  0.50000  0.25000
E29   E   0.19438  0.10747  0.21925
E30   E   0.19438  0.39253  0.71925
E31   E   0.19438  0.60747  0.78075
E32   E   0.19438  0.89253  0.28075
E33   E   0.21925  0.19438  0.10747
E34   E   0.21925  0.30562  0.60747
E35   E   0.21925  0.69438  0.89253
E36   E   0.21925  0.80562  0.39253
E37   E   0.25000  0.08260  0.00000
E38   E   0.25000  0.19383  0.50000
E39   E   0.25000  0.30617  0.00000
E40   E   0.25000  0.41740  0.50000
E41   E   0.25000  0.58260  0.00000
E42   E   0.25000  0.69383  0.50000
E43   E   0.25000  0.80617  0.00000
E44   E   0.25000  0.91740  0.50000
E45   E   0.28075  0.19438  0.89253
E46   E   0.28075  0.30562  0.39253
E47   E   0.28075  0.69438  0.10747
E48   E   0.28075  0.80562  0.60747
E49   E   0.30562  0.10747  0.78075
E50   E   0.30562  0.39253  0.28075
E51   E   0.30562  0.60747  0.21925
E52   E   0.30562  0.89253  0.71925
E53   E   0.30617  0.00000  0.25000
E54   E   0.30617  0.50000  0.75000
E55   E   0.33692  0.05562  0.39253
E56   E   0.33692  0.44438  0.89253
E57   E   0.33692  0.55562  0.60747
E58   E   0.33692  0.94438  0.10747
E59   E   0.39253  0.16308  0.55562
E60   E   0.39253  0.21925  0.80562
E61   E   0.39253  0.28075  0.30562
E62   E   0.39253  0.33692  0.05562
E63   E   0.39253  0.66308  0.44438
E64   E   0.39253  0.71925  0.19438
E65   E   0.39253  0.78075  0.69438
E66   E   0.39253  0.83692  0.94438
E67   E   0.41740  0.00000  0.75000
E68   E   0.41740  0.50000  0.25000
E69   E   0.44438  0.10747  0.16308
E70   E   0.44438  0.39253  0.66308
E71   E   0.44438  0.60747  0.83692
E72   E   0.44438  0.89253  0.33692
E73   E   0.50000  0.25000  0.19383
E74   E   0.50000  0.25000  0.41740
E75   E   0.50000  0.25000  0.69383
E76   E   0.50000  0.25000  0.91740
E77   E   0.50000  0.75000  0.08260
E78   E   0.50000  0.75000  0.30617
E79   E   0.50000  0.75000  0.58260
E80   E   0.50000  0.75000  0.80617
E81   E   0.55562  0.10747  0.66308
E82   E   0.55562  0.39253  0.16308
E83   E   0.55562  0.60747  0.33692
E84   E   0.55562  0.89253  0.83692
E85   E   0.58260  0.00000  0.25000
E86   E   0.58260  0.50000  0.75000
E87   E   0.60747  0.16308  0.05562
E88   E   0.60747  0.21925  0.30562
E89   E   0.60747  0.28075  0.80562
E90   E   0.60747  0.33692  0.55562
E91   E   0.60747  0.66308  0.94438
E92   E   0.60747  0.71925  0.69438
E93   E   0.60747  0.78075  0.19438
E94   E   0.60747  0.83692  0.44438
E95   E   0.66308  0.05562  0.89253
E96   E   0.66308  0.44438  0.39253
E97   E   0.66308  0.55562  0.10747
E98   E   0.66308  0.94438  0.60747
E99   E   0.69383  0.00000  0.75000
E100  E   0.69383  0.50000  0.25000
E101  E   0.69438  0.10747  0.28075
E102  E   0.69438  0.39253  0.78075
E103  E   0.69438  0.60747  0.71925
E104  E   0.69438  0.89253  0.21925
E105  E   0.71925  0.19438  0.39253
E106  E   0.71925  0.30562  0.89253
E107  E   0.71925  0.69438  0.60747
E108  E   0.71925  0.80562  0.10747
E109  E   0.75000  0.08260  0.50000
E110  E   0.75000  0.19383  0.00000
E111  E   0.75000  0.30617  0.50000
E112  E   0.75000  0.41740  0.00000
E113  E   0.75000  0.58260  0.50000
E114  E   0.75000  0.69383  0.00000
E115  E   0.75000  0.80617  0.50000
E116  E   0.75000  0.91740  0.00000
E117  E   0.78075  0.19438  0.60747
E118  E   0.78075  0.30562  0.10747
E119  E   0.78075  0.69438  0.39253
E120  E   0.78075  0.80562  0.89253
E121  E   0.80562  0.10747  0.71925
E122  E   0.80562  0.39253  0.21925
E123  E   0.80562  0.60747  0.28075
E124  E   0.80562  0.89253  0.78075
E125  E   0.80617  0.00000  0.25000
E126  E   0.80617  0.50000  0.75000
E127  E   0.83692  0.05562  0.10747
E128  E   0.83692  0.44438  0.60747
E129  E   0.83692  0.55562  0.89253
E130  E   0.83692  0.94438  0.39253
E131  E   0.89253  0.16308  0.94438
E132  E   0.89253  0.21925  0.69438
E133  E   0.89253  0.28075  0.19438
E134  E   0.89253  0.33692  0.44438
E135  E   0.89253  0.66308  0.05562
E136  E   0.89253  0.71925  0.30562
E137  E   0.89253  0.78075  0.80562
E138  E   0.89253  0.83692  0.55562
E139  E   0.91740  0.00000  0.75000
E140  E   0.91740  0.50000  0.25000
E141  E   0.94438  0.10747  0.33692
E142  E   0.94438  0.39253  0.83692
E143  E   0.94438  0.60747  0.66308
E144  E   0.94438  0.89253  0.16308
loop_
