data_sxj_I-43d  hall_number: 516, V_con: 6
_audit_creation_date              2025-03-05
_audit_creation_method            'MOFbuilder_1.0'
_symmetry_space_group_name_H-M    'P1'
_symmetry_Int_Tables_number       1
_symmetry_cell_setting            triclinic
loop_
_symmetry_equiv_pos_as_xyz
  x,y,z
_cell_length_a                    38.702200000000005
_cell_length_b                    38.702200000000005
_cell_length_c                    38.702200000000005
_cell_angle_alpha                 90.0
_cell_angle_beta                  90.0
_cell_angle_gamma                 90.0
loop_
_atom_site_label
_atom_site_type_symbol
_atom_site_fract_x
_atom_site_fract_y
_atom_site_fract_z
V1    V   0.06010  0.07833  0.88719
V2    V   0.06010  0.92167  0.61281
V3    V   0.07833  0.11281  0.43990
V4    V   0.07833  0.88719  0.06010
V5    V   0.11281  0.43990  0.07833
V6    V   0.11281  0.56010  0.42167
V7    V   0.13719  0.32833  0.31010
V8    V   0.13719  0.67167  0.18990
V9    V   0.17167  0.31010  0.86281
V10   V   0.17167  0.68990  0.63719
V11   V   0.18990  0.13719  0.67167
V12   V   0.18990  0.86281  0.82833
V13   V   0.31010  0.13719  0.32833
V14   V   0.31010  0.86281  0.17167
V15   V   0.32833  0.31010  0.13719
V16   V   0.32833  0.68990  0.36281
V17   V   0.36281  0.32833  0.68990
V18   V   0.36281  0.67167  0.81010
V19   V   0.38719  0.43990  0.92167
V20   V   0.38719  0.56010  0.57833
V21   V   0.42167  0.11281  0.56010
V22   V   0.42167  0.88719  0.93990
V23   V   0.43990  0.07833  0.11281
V24   V   0.43990  0.92167  0.38719
V25   V   0.56010  0.42167  0.11281
V26   V   0.56010  0.57833  0.38719
V27   V   0.57833  0.38719  0.56010
V28   V   0.57833  0.61281  0.93990
V29   V   0.61281  0.06010  0.92167
V30   V   0.61281  0.93990  0.57833
V31   V   0.63719  0.17167  0.68990
V32   V   0.63719  0.82833  0.81010
V33   V   0.67167  0.18990  0.13719
V34   V   0.67167  0.81010  0.36281
V35   V   0.68990  0.36281  0.32833
V36   V   0.68990  0.63719  0.17167
V37   V   0.81010  0.36281  0.67167
V38   V   0.81010  0.63719  0.82833
V39   V   0.82833  0.18990  0.86281
V40   V   0.82833  0.81010  0.63719
V41   V   0.86281  0.17167  0.31010
V42   V   0.86281  0.82833  0.18990
V43   V   0.88719  0.06010  0.07833
V44   V   0.88719  0.93990  0.42167
V45   V   0.92167  0.38719  0.43990
V46   V   0.92167  0.61281  0.06010
V47   V   0.93990  0.42167  0.88719
V48   V   0.93990  0.57833  0.61281
E1    E   0.01724  0.47365  0.43079
E2    E   0.01724  0.52635  0.06921
E3    E   0.02635  0.43079  0.98276
E4    E   0.02635  0.56921  0.51724
E5    E   0.02943  0.35776  0.37500
E6    E   0.02943  0.64224  0.12500
E7    E   0.05579  0.36589  0.87500
E8    E   0.05579  0.63411  0.62500
E9    E   0.06921  0.01724  0.52635
E10   E   0.06921  0.98276  0.97365
E11   E   0.10776  0.22057  0.37500
E12   E   0.10776  0.77943  0.12500
E13   E   0.11589  0.19421  0.87500
E14   E   0.11589  0.80579  0.62500
E15   E   0.12500  0.02943  0.64224
E16   E   0.12500  0.10776  0.77943
E17   E   0.12500  0.38411  0.19421
E18   E   0.12500  0.44421  0.36589
E19   E   0.12500  0.55579  0.13411
E20   E   0.12500  0.61589  0.30579
E21   E   0.12500  0.89224  0.72057
E22   E   0.12500  0.97057  0.85776
E23   E   0.13411  0.12500  0.55579
E24   E   0.13411  0.87500  0.94421
E25   E   0.14224  0.37500  0.97057
E26   E   0.14224  0.62500  0.52943
E27   E   0.18079  0.22365  0.76724
E28   E   0.18079  0.77635  0.73276
E29   E   0.19421  0.12500  0.38411
E30   E   0.19421  0.87500  0.11589
E31   E   0.22057  0.37500  0.10776
E32   E   0.22057  0.62500  0.39224
E33   E   0.22365  0.23276  0.31921
E34   E   0.22365  0.76724  0.18079
E35   E   0.23276  0.31921  0.22365
E36   E   0.23276  0.68079  0.27635
E37   E   0.26724  0.31921  0.77635
E38   E   0.26724  0.68079  0.72365
E39   E   0.27635  0.23276  0.68079
E40   E   0.27635  0.76724  0.81921
E41   E   0.27943  0.37500  0.89224
E42   E   0.27943  0.62500  0.60776
E43   E   0.30579  0.12500  0.61589
E44   E   0.30579  0.87500  0.88411
E45   E   0.31921  0.22365  0.23276
E46   E   0.31921  0.77635  0.26724
E47   E   0.35776  0.37500  0.02943
E48   E   0.35776  0.62500  0.47057
E49   E   0.36589  0.12500  0.44421
E50   E   0.36589  0.87500  0.05579
E51   E   0.37500  0.02943  0.35776
E52   E   0.37500  0.10776  0.22057
E53   E   0.37500  0.38411  0.80579
E54   E   0.37500  0.44421  0.63411
E55   E   0.37500  0.55579  0.86589
E56   E   0.37500  0.61589  0.69421
E57   E   0.37500  0.89224  0.27943
E58   E   0.37500  0.97057  0.14224
E59   E   0.38411  0.19421  0.12500
E60   E   0.38411  0.80579  0.37500
E61   E   0.39224  0.22057  0.62500
E62   E   0.39224  0.77943  0.87500
E63   E   0.43079  0.01724  0.47365
E64   E   0.43079  0.98276  0.02635
E65   E   0.44421  0.36589  0.12500
E66   E   0.44421  0.63411  0.37500
E67   E   0.47057  0.35776  0.62500
E68   E   0.47057  0.64224  0.87500
E69   E   0.47365  0.43079  0.01724
E70   E   0.47365  0.56921  0.48276
E71   E   0.48276  0.47365  0.56921
E72   E   0.48276  0.52635  0.93079
E73   E   0.51724  0.02635  0.56921
E74   E   0.51724  0.97365  0.93079
E75   E   0.52635  0.06921  0.01724
E76   E   0.52635  0.93079  0.48276
E77   E   0.52943  0.14224  0.62500
E78   E   0.52943  0.85776  0.87500
E79   E   0.55579  0.13411  0.12500
E80   E   0.55579  0.86589  0.37500
E81   E   0.56921  0.48276  0.47365
E82   E   0.56921  0.51724  0.02635
E83   E   0.60776  0.27943  0.62500
E84   E   0.60776  0.72057  0.87500
E85   E   0.61589  0.30579  0.12500
E86   E   0.61589  0.69421  0.37500
E87   E   0.62500  0.05579  0.63411
E88   E   0.62500  0.11589  0.80579
E89   E   0.62500  0.39224  0.22057
E90   E   0.62500  0.47057  0.35776
E91   E   0.62500  0.52943  0.14224
E92   E   0.62500  0.60776  0.27943
E93   E   0.62500  0.88411  0.69421
E94   E   0.62500  0.94421  0.86589
E95   E   0.63411  0.37500  0.44421
E96   E   0.63411  0.62500  0.05579
E97   E   0.64224  0.12500  0.02943
E98   E   0.64224  0.87500  0.47057
E99   E   0.68079  0.27635  0.23276
E100  E   0.68079  0.72365  0.26724
E101  E   0.69421  0.37500  0.61589
E102  E   0.69421  0.62500  0.88411
E103  E   0.72057  0.12500  0.89224
E104  E   0.72057  0.87500  0.60776
E105  E   0.72365  0.26724  0.68079
E106  E   0.72365  0.73276  0.81921
E107  E   0.73276  0.18079  0.77635
E108  E   0.73276  0.81921  0.72365
E109  E   0.76724  0.18079  0.22365
E110  E   0.76724  0.81921  0.27635
E111  E   0.77635  0.26724  0.31921
E112  E   0.77635  0.73276  0.18079
E113  E   0.77943  0.12500  0.10776
E114  E   0.77943  0.87500  0.39224
E115  E   0.80579  0.37500  0.38411
E116  E   0.80579  0.62500  0.11589
E117  E   0.81921  0.27635  0.76724
E118  E   0.81921  0.72365  0.73276
E119  E   0.85776  0.12500  0.97057
E120  E   0.85776  0.87500  0.52943
E121  E   0.86589  0.37500  0.55579
E122  E   0.86589  0.62500  0.94421
E123  E   0.87500  0.05579  0.36589
E124  E   0.87500  0.11589  0.19421
E125  E   0.87500  0.39224  0.77943
E126  E   0.87500  0.47057  0.64224
E127  E   0.87500  0.52943  0.85776
E128  E   0.87500  0.60776  0.72057
E129  E   0.87500  0.88411  0.30579
E130  E   0.87500  0.94421  0.13411
E131  E   0.88411  0.30579  0.87500
E132  E   0.88411  0.69421  0.62500
E133  E   0.89224  0.27943  0.37500
E134  E   0.89224  0.72057  0.12500
E135  E   0.93079  0.48276  0.52635
E136  E   0.93079  0.51724  0.97365
E137  E   0.94421  0.13411  0.87500
E138  E   0.94421  0.86589  0.62500
E139  E   0.97057  0.14224  0.37500
E140  E   0.97057  0.85776  0.12500
E141  E   0.97365  0.06921  0.98276
E142  E   0.97365  0.93079  0.51724
E143  E   0.98276  0.02635  0.43079
E144  E   0.98276  0.97365  0.06921
loop_
