data_sxo_Ia-3d  hall_number: 530, V_con: 6
_audit_creation_date              2025-03-05
_audit_creation_method            'MOFbuilder_1.0'
_symmetry_space_group_name_H-M    'P1'
_symmetry_Int_Tables_number       1
_symmetry_cell_setting            triclinic
loop_
_symmetry_equiv_pos_as_xyz
  x,y,z
_cell_length_a                    44.585800000000006
_cell_length_b                    44.585800000000006
_cell_length_c                    44.585800000000006
_cell_angle_alpha                 90.0
_cell_angle_beta                  90.0
_cell_angle_gamma                 90.0
loop_
_atom_site_label
_atom_site_type_symbol
_atom_site_fract_x
_atom_site_fract_y
_atom_site_fract_z
V1    V   0.04570  0.04949  0.64937
V2    V   0.04570  0.45051  0.14937
V3    V   0.04570  0.54949  0.35063
V4    V   0.04570  0.95051  0.85063
V5    V   0.04949  0.14937  0.95430
V6    V   0.04949  0.35063  0.45430
V7    V   0.04949  0.64937  0.04570
V8    V   0.04949  0.85063  0.54570
V9    V   0.10063  0.20051  0.29570
V10   V   0.10063  0.29949  0.79570
V11   V   0.10063  0.70051  0.70430
V12   V   0.10063  0.79949  0.20430
V13   V   0.14937  0.04570  0.45051
V14   V   0.14937  0.45430  0.95051
V15   V   0.14937  0.54570  0.54949
V16   V   0.14937  0.95430  0.04949
V17   V   0.20051  0.20430  0.60063
V18   V   0.20051  0.29570  0.10063
V19   V   0.20051  0.70430  0.39937
V20   V   0.20051  0.79570  0.89937
V21   V   0.20430  0.10063  0.79949
V22   V   0.20430  0.39937  0.29949
V23   V   0.20430  0.60063  0.20051
V24   V   0.20430  0.89937  0.70051
V25   V   0.29570  0.10063  0.20051
V26   V   0.29570  0.39937  0.70051
V27   V   0.29570  0.60063  0.79949
V28   V   0.29570  0.89937  0.29949
V29   V   0.29949  0.20430  0.39937
V30   V   0.29949  0.29570  0.89937
V31   V   0.29949  0.70430  0.60063
V32   V   0.29949  0.79570  0.10063
V33   V   0.35063  0.04570  0.54949
V34   V   0.35063  0.45430  0.04949
V35   V   0.35063  0.54570  0.45051
V36   V   0.35063  0.95430  0.95051
V37   V   0.39937  0.20051  0.70430
V38   V   0.39937  0.29949  0.20430
V39   V   0.39937  0.70051  0.29570
V40   V   0.39937  0.79949  0.79570
V41   V   0.45051  0.14937  0.04570
V42   V   0.45051  0.35063  0.54570
V43   V   0.45051  0.64937  0.95430
V44   V   0.45051  0.85063  0.45430
V45   V   0.45430  0.04949  0.35063
V46   V   0.45430  0.45051  0.85063
V47   V   0.45430  0.54949  0.64937
V48   V   0.45430  0.95051  0.14937
V49   V   0.54570  0.04949  0.85063
V50   V   0.54570  0.45051  0.35063
V51   V   0.54570  0.54949  0.14937
V52   V   0.54570  0.95051  0.64937
V53   V   0.54949  0.14937  0.54570
V54   V   0.54949  0.35063  0.04570
V55   V   0.54949  0.64937  0.45430
V56   V   0.54949  0.85063  0.95430
V57   V   0.60063  0.20051  0.20430
V58   V   0.60063  0.29949  0.70430
V59   V   0.60063  0.70051  0.79570
V60   V   0.60063  0.79949  0.29570
V61   V   0.64937  0.04570  0.04949
V62   V   0.64937  0.45430  0.54949
V63   V   0.64937  0.54570  0.95051
V64   V   0.64937  0.95430  0.45051
V65   V   0.70051  0.20430  0.89937
V66   V   0.70051  0.29570  0.39937
V67   V   0.70051  0.70430  0.10063
V68   V   0.70051  0.79570  0.60063
V69   V   0.70430  0.10063  0.70051
V70   V   0.70430  0.39937  0.20051
V71   V   0.70430  0.60063  0.29949
V72   V   0.70430  0.89937  0.79949
V73   V   0.79570  0.10063  0.29949
V74   V   0.79570  0.39937  0.79949
V75   V   0.79570  0.60063  0.70051
V76   V   0.79570  0.89937  0.20051
V77   V   0.79949  0.20430  0.10063
V78   V   0.79949  0.29570  0.60063
V79   V   0.79949  0.70430  0.89937
V80   V   0.79949  0.79570  0.39937
V81   V   0.85063  0.04570  0.95051
V82   V   0.85063  0.45430  0.45051
V83   V   0.85063  0.54570  0.04949
V84   V   0.85063  0.95430  0.54949
V85   V   0.89937  0.20051  0.79570
V86   V   0.89937  0.29949  0.29570
V87   V   0.89937  0.70051  0.20430
V88   V   0.89937  0.79949  0.70430
V89   V   0.95051  0.14937  0.45430
V90   V   0.95051  0.35063  0.95430
V91   V   0.95051  0.64937  0.54570
V92   V   0.95051  0.85063  0.04570
V93   V   0.95430  0.04949  0.14937
V94   V   0.95430  0.45051  0.64937
V95   V   0.95430  0.54949  0.85063
V96   V   0.95430  0.95051  0.35063
E1    E   0.00000  0.25000  0.29570
E2    E   0.00000  0.25000  0.45430
E3    E   0.00000  0.25000  0.79570
E4    E   0.00000  0.25000  0.95430
E5    E   0.00000  0.75000  0.04570
E6    E   0.00000  0.75000  0.20430
E7    E   0.00000  0.75000  0.54570
E8    E   0.00000  0.75000  0.70430
E9    E   0.02557  0.17494  0.37500
E10   E   0.02557  0.32506  0.87500
E11   E   0.02557  0.67494  0.62500
E12   E   0.02557  0.82506  0.12500
E13   E   0.04570  0.00000  0.75000
E14   E   0.04570  0.50000  0.25000
E15   E   0.04760  0.04994  0.90246
E16   E   0.04760  0.45006  0.40246
E17   E   0.04760  0.54994  0.09754
E18   E   0.04760  0.95006  0.59754
E19   E   0.04994  0.09754  0.45240
E20   E   0.04994  0.40246  0.95240
E21   E   0.04994  0.59754  0.54760
E22   E   0.04994  0.90246  0.04760
E23   E   0.07506  0.22443  0.87500
E24   E   0.07506  0.27557  0.37500
E25   E   0.07506  0.72443  0.12500
E26   E   0.07506  0.77557  0.62500
E27   E   0.09754  0.04760  0.54994
E28   E   0.09754  0.45240  0.04994
E29   E   0.09754  0.54760  0.45006
E30   E   0.09754  0.95240  0.95006
E31   E   0.12311  0.12689  0.62500
E32   E   0.12311  0.37311  0.12500
E33   E   0.12311  0.62689  0.37500
E34   E   0.12311  0.87311  0.87500
E35   E   0.12311  0.12689  0.62500
E36   E   0.12311  0.37311  0.12500
E37   E   0.12311  0.62689  0.37500
E38   E   0.12311  0.87311  0.87500
E39   E   0.12500  0.02557  0.82506
E40   E   0.12500  0.07506  0.72443
E41   E   0.12500  0.12311  0.37311
E42   E   0.12500  0.12311  0.37311
E43   E   0.12500  0.37689  0.87311
E44   E   0.12500  0.42494  0.22443
E45   E   0.12500  0.47443  0.32506
E46   E   0.12500  0.52557  0.17494
E47   E   0.12500  0.57506  0.27557
E48   E   0.12500  0.62311  0.62689
E49   E   0.12500  0.87689  0.12689
E50   E   0.12500  0.92494  0.77557
E51   E   0.12500  0.97443  0.67494
E52   E   0.12689  0.12500  0.87689
E53   E   0.12689  0.37500  0.37689
E54   E   0.12689  0.62500  0.12311
E55   E   0.12689  0.62500  0.12311
E56   E   0.12689  0.87500  0.62311
E57   E   0.15246  0.20006  0.79760
E58   E   0.15246  0.29994  0.29760
E59   E   0.15246  0.70006  0.20240
E60   E   0.15246  0.79994  0.70240
E61   E   0.17494  0.12500  0.52557
E62   E   0.17494  0.37500  0.02557
E63   E   0.17494  0.62500  0.47443
E64   E   0.17494  0.87500  0.97443
E65   E   0.20006  0.20240  0.34754
E66   E   0.20006  0.29760  0.84754
E67   E   0.20006  0.70240  0.65246
E68   E   0.20006  0.79760  0.15246
E69   E   0.20240  0.15246  0.70006
E70   E   0.20240  0.34754  0.20006
E71   E   0.20240  0.65246  0.29994
E72   E   0.20240  0.84754  0.79994
E73   E   0.20430  0.00000  0.75000
E74   E   0.20430  0.50000  0.25000
E75   E   0.22443  0.12500  0.42494
E76   E   0.22443  0.37500  0.92494
E77   E   0.22443  0.62500  0.57506
E78   E   0.22443  0.87500  0.07506
E79   E   0.25000  0.04570  0.50000
E80   E   0.25000  0.20430  0.50000
E81   E   0.25000  0.29570  0.00000
E82   E   0.25000  0.45430  0.00000
E83   E   0.25000  0.54570  0.50000
E84   E   0.25000  0.70430  0.50000
E85   E   0.25000  0.79570  0.00000
E86   E   0.25000  0.95430  0.00000
E87   E   0.27557  0.12500  0.57506
E88   E   0.27557  0.37500  0.07506
E89   E   0.27557  0.62500  0.42494
E90   E   0.27557  0.87500  0.92494
E91   E   0.29570  0.00000  0.25000
E92   E   0.29570  0.50000  0.75000
E93   E   0.29760  0.15246  0.29994
E94   E   0.29760  0.34754  0.79994
E95   E   0.29760  0.65246  0.70006
E96   E   0.29760  0.84754  0.20006
E97   E   0.29994  0.20240  0.65246
E98   E   0.29994  0.29760  0.15246
E99   E   0.29994  0.70240  0.34754
E100  E   0.29994  0.79760  0.84754
E101  E   0.32506  0.12500  0.47443
E102  E   0.32506  0.37500  0.97443
E103  E   0.32506  0.62500  0.52557
E104  E   0.32506  0.87500  0.02557
E105  E   0.34754  0.20006  0.20240
E106  E   0.34754  0.29994  0.70240
E107  E   0.34754  0.70006  0.79760
E108  E   0.34754  0.79994  0.29760
E109  E   0.37311  0.12500  0.12311
E110  E   0.37311  0.12500  0.12311
E111  E   0.37311  0.37500  0.62311
E112  E   0.37311  0.62500  0.87689
E113  E   0.37311  0.87500  0.37689
E114  E   0.37500  0.02557  0.17494
E115  E   0.37500  0.07506  0.27557
E116  E   0.37500  0.12311  0.62689
E117  E   0.37500  0.12311  0.62689
E118  E   0.37500  0.37689  0.12689
E119  E   0.37500  0.42494  0.77557
E120  E   0.37500  0.47443  0.67494
E121  E   0.37500  0.52557  0.82506
E122  E   0.37500  0.57506  0.72443
E123  E   0.37500  0.62311  0.37311
E124  E   0.37500  0.87689  0.87311
E125  E   0.37500  0.92494  0.22443
E126  E   0.37500  0.97443  0.32506
E127  E   0.37689  0.12689  0.37500
E128  E   0.37689  0.37311  0.87500
E129  E   0.37689  0.62689  0.62500
E130  E   0.37689  0.87311  0.12500
E131  E   0.40246  0.04760  0.45006
E132  E   0.40246  0.45240  0.95006
E133  E   0.40246  0.54760  0.54994
E134  E   0.40246  0.95240  0.04994
E135  E   0.42494  0.22443  0.12500
E136  E   0.42494  0.27557  0.62500
E137  E   0.42494  0.72443  0.87500
E138  E   0.42494  0.77557  0.37500
E139  E   0.45006  0.09754  0.54760
E140  E   0.45006  0.40246  0.04760
E141  E   0.45006  0.59754  0.45240
E142  E   0.45006  0.90246  0.95240
E143  E   0.45240  0.04994  0.09754
E144  E   0.45240  0.45006  0.59754
E145  E   0.45240  0.54994  0.90246
E146  E   0.45240  0.95006  0.40246
E147  E   0.45430  0.00000  0.25000
E148  E   0.45430  0.50000  0.75000
E149  E   0.47443  0.17494  0.62500
E150  E   0.47443  0.32506  0.12500
E151  E   0.47443  0.67494  0.37500
E152  E   0.47443  0.82506  0.87500
E153  E   0.50000  0.25000  0.04570
E154  E   0.50000  0.25000  0.20430
E155  E   0.50000  0.25000  0.54570
E156  E   0.50000  0.25000  0.70430
E157  E   0.50000  0.75000  0.29570
E158  E   0.50000  0.75000  0.45430
E159  E   0.50000  0.75000  0.79570
E160  E   0.50000  0.75000  0.95430
E161  E   0.52557  0.17494  0.12500
E162  E   0.52557  0.32506  0.62500
E163  E   0.52557  0.67494  0.87500
E164  E   0.52557  0.82506  0.37500
E165  E   0.54570  0.00000  0.75000
E166  E   0.54570  0.50000  0.25000
E167  E   0.54760  0.04994  0.59754
E168  E   0.54760  0.45006  0.09754
E169  E   0.54760  0.54994  0.40246
E170  E   0.54760  0.95006  0.90246
E171  E   0.54994  0.09754  0.04760
E172  E   0.54994  0.40246  0.54760
E173  E   0.54994  0.59754  0.95240
E174  E   0.54994  0.90246  0.45240
E175  E   0.57506  0.22443  0.62500
E176  E   0.57506  0.27557  0.12500
E177  E   0.57506  0.72443  0.37500
E178  E   0.57506  0.77557  0.87500
E179  E   0.59754  0.04760  0.95006
E180  E   0.59754  0.45240  0.45006
E181  E   0.59754  0.54760  0.04994
E182  E   0.59754  0.95240  0.54994
E183  E   0.62311  0.12689  0.87500
E184  E   0.62311  0.37311  0.37500
E185  E   0.62311  0.62689  0.12500
E186  E   0.62311  0.87311  0.62500
E187  E   0.62500  0.02557  0.67494
E188  E   0.62500  0.07506  0.77557
E189  E   0.62500  0.12311  0.12689
E190  E   0.62500  0.12311  0.12689
E191  E   0.62500  0.37689  0.62689
E192  E   0.62500  0.42494  0.27557
E193  E   0.62500  0.47443  0.17494
E194  E   0.62500  0.52557  0.32506
E195  E   0.62500  0.57506  0.22443
E196  E   0.62500  0.62311  0.87311
E197  E   0.62500  0.87689  0.37311
E198  E   0.62500  0.92494  0.72443
E199  E   0.62500  0.97443  0.82506
E200  E   0.62689  0.12500  0.62311
E201  E   0.62689  0.37500  0.12311
E202  E   0.62689  0.37500  0.12311
E203  E   0.62689  0.62500  0.37689
E204  E   0.62689  0.87500  0.87689
E205  E   0.65246  0.20006  0.70240
E206  E   0.65246  0.29994  0.20240
E207  E   0.65246  0.70006  0.29760
E208  E   0.65246  0.79994  0.79760
E209  E   0.67494  0.12500  0.97443
E210  E   0.67494  0.37500  0.47443
E211  E   0.67494  0.62500  0.02557
E212  E   0.67494  0.87500  0.52557
E213  E   0.70006  0.20240  0.15246
E214  E   0.70006  0.29760  0.65246
E215  E   0.70006  0.70240  0.84754
E216  E   0.70006  0.79760  0.34754
E217  E   0.70240  0.15246  0.79994
E218  E   0.70240  0.34754  0.29994
E219  E   0.70240  0.65246  0.20006
E220  E   0.70240  0.84754  0.70006
E221  E   0.70430  0.00000  0.75000
E222  E   0.70430  0.50000  0.25000
E223  E   0.72443  0.12500  0.07506
E224  E   0.72443  0.37500  0.57506
E225  E   0.72443  0.62500  0.92494
E226  E   0.72443  0.87500  0.42494
E227  E   0.75000  0.04570  0.00000
E228  E   0.75000  0.20430  0.00000
E229  E   0.75000  0.29570  0.50000
E230  E   0.75000  0.45430  0.50000
E231  E   0.75000  0.54570  0.00000
E232  E   0.75000  0.70430  0.00000
E233  E   0.75000  0.79570  0.50000
E234  E   0.75000  0.95430  0.50000
E235  E   0.77557  0.12500  0.92494
E236  E   0.77557  0.37500  0.42494
E237  E   0.77557  0.62500  0.07506
E238  E   0.77557  0.87500  0.57506
E239  E   0.79570  0.00000  0.25000
E240  E   0.79570  0.50000  0.75000
E241  E   0.79760  0.15246  0.20006
E242  E   0.79760  0.34754  0.70006
E243  E   0.79760  0.65246  0.79994
E244  E   0.79760  0.84754  0.29994
E245  E   0.79994  0.20240  0.84754
E246  E   0.79994  0.29760  0.34754
E247  E   0.79994  0.70240  0.15246
E248  E   0.79994  0.79760  0.65246
E249  E   0.82506  0.12500  0.02557
E250  E   0.82506  0.37500  0.52557
E251  E   0.82506  0.62500  0.97443
E252  E   0.82506  0.87500  0.47443
E253  E   0.84754  0.20006  0.29760
E254  E   0.84754  0.29994  0.79760
E255  E   0.84754  0.70006  0.70240
E256  E   0.84754  0.79994  0.20240
E257  E   0.87311  0.12500  0.37689
E258  E   0.87311  0.37500  0.87689
E259  E   0.87311  0.62500  0.62311
E260  E   0.87311  0.87500  0.12311
E261  E   0.87311  0.87500  0.12311
E262  E   0.87500  0.02557  0.32506
E263  E   0.87500  0.07506  0.22443
E264  E   0.87500  0.12311  0.87311
E265  E   0.87500  0.12311  0.87311
E266  E   0.87500  0.37689  0.37311
E267  E   0.87500  0.42494  0.72443
E268  E   0.87500  0.47443  0.82506
E269  E   0.87500  0.52557  0.67494
E270  E   0.87500  0.57506  0.77557
E271  E   0.87500  0.62311  0.12689
E272  E   0.87500  0.87689  0.62689
E273  E   0.87500  0.92494  0.27557
E274  E   0.87500  0.97443  0.17494
E275  E   0.87689  0.12689  0.12500
E276  E   0.87689  0.37311  0.62500
E277  E   0.87689  0.62689  0.87500
E278  E   0.87689  0.87311  0.37500
E279  E   0.90246  0.04760  0.04994
E280  E   0.90246  0.45240  0.54994
E281  E   0.90246  0.54760  0.95006
E282  E   0.90246  0.95240  0.45006
E283  E   0.92494  0.22443  0.37500
E284  E   0.92494  0.27557  0.87500
E285  E   0.92494  0.72443  0.62500
E286  E   0.92494  0.77557  0.12500
E287  E   0.95006  0.09754  0.95240
E288  E   0.95006  0.40246  0.45240
E289  E   0.95006  0.59754  0.04760
E290  E   0.95006  0.90246  0.54760
E291  E   0.95240  0.04994  0.40246
E292  E   0.95240  0.45006  0.90246
E293  E   0.95240  0.54994  0.59754
E294  E   0.95240  0.95006  0.09754
E295  E   0.95430  0.00000  0.25000
E296  E   0.95430  0.50000  0.75000
E297  E   0.97443  0.17494  0.87500
E298  E   0.97443  0.32506  0.37500
E299  E   0.97443  0.67494  0.12500
E300  E   0.97443  0.82506  0.62500
loop_
