data_tav_C12/c1  hall_number: 107, V_con: 6, EC_con: 4
_audit_creation_date              2025-03-05
_audit_creation_method            'MOFbuilder_1.0'
_symmetry_space_group_name_H-M    'P1'
_symmetry_Int_Tables_number       1
_symmetry_cell_setting            triclinic
loop_
_symmetry_equiv_pos_as_xyz
  x,y,z
_cell_length_a                    19.7343
_cell_length_b                    27.8065
_cell_length_c                    19.764699999999998
_cell_angle_alpha                 90.0
_cell_angle_beta                  119.1578
_cell_angle_gamma                 90.0
loop_
_atom_site_label
_atom_site_type_symbol
_atom_site_fract_x
_atom_site_fract_y
_atom_site_fract_z
V1    V   0.25000  0.75000  0.00000
V2    V   0.25000  0.75000  0.50000
V3    V   0.75000  0.25000  0.00000
V4    V   0.75000  0.25000  0.50000
EC1    EC   0.00000  0.06144  0.75000
EC2    EC   0.00000  0.43856  0.25000
EC3    EC   0.00000  0.56144  0.75000
EC4    EC   0.00000  0.93856  0.25000
EC5    EC   0.50000  0.06144  0.25000
EC6    EC   0.50000  0.43856  0.75000
EC7    EC   0.50000  0.56144  0.25000
EC8    EC   0.50000  0.93856  0.75000
E1    E   0.00000  0.25000  0.25000
E2    E   0.00000  0.25000  0.75000
E3    E   0.00000  0.75000  0.25000
E4    E   0.00000  0.75000  0.75000
E5    E   0.12500  0.59428  0.12500
E6    E   0.12500  0.65572  0.87500
E7    E   0.12500  0.84428  0.12500
E8    E   0.12500  0.90572  0.87500
E9    E   0.37500  0.59428  0.62500
E10   E   0.37500  0.65572  0.37500
E11   E   0.37500  0.84428  0.62500
E12   E   0.37500  0.90572  0.37500
E13   E   0.50000  0.25000  0.25000
E14   E   0.50000  0.25000  0.75000
E15   E   0.50000  0.75000  0.25000
E16   E   0.50000  0.75000  0.75000
E17   E   0.62500  0.09428  0.62500
E18   E   0.62500  0.15572  0.37500
E19   E   0.62500  0.34428  0.62500
E20   E   0.62500  0.40572  0.37500
E21   E   0.87500  0.09428  0.12500
E22   E   0.87500  0.15572  0.87500
E23   E   0.87500  0.34428  0.12500
E24   E   0.87500  0.40572  0.87500
loop_
