data_tbo-a_Fm-3m  hall_number: 523, V_con: 3, EC_con: 3
_audit_creation_date              2025-03-05
_audit_creation_method            'MOFbuilder_1.0'
_symmetry_space_group_name_H-M    'P1'
_symmetry_Int_Tables_number       1
_symmetry_cell_setting            triclinic
loop_
_symmetry_equiv_pos_as_xyz
  x,y,z
_cell_length_a                    11.14159
_cell_length_b                    11.14159
_cell_length_c                    11.14159
_cell_angle_alpha                 90.0
_cell_angle_beta                  90.0
_cell_angle_gamma                 90.0
loop_
_atom_site_label
_atom_site_type_symbol
_atom_site_fract_x
_atom_site_fract_y
_atom_site_fract_z
V1    V   0.11796  0.18143  0.18143
V2    V   0.11796  0.18143  0.81857
V3    V   0.11796  0.31857  0.31857
V4    V   0.11796  0.31857  0.68143
V5    V   0.11796  0.68143  0.31857
V6    V   0.11796  0.68143  0.68143
V7    V   0.11796  0.81857  0.18143
V8    V   0.11796  0.81857  0.81857
V9    V   0.18143  0.11796  0.18143
V10   V   0.18143  0.11796  0.81857
V11   V   0.18143  0.18143  0.11796
V12   V   0.18143  0.18143  0.88204
V13   V   0.18143  0.31857  0.38204
V14   V   0.18143  0.31857  0.61796
V15   V   0.18143  0.38204  0.31857
V16   V   0.18143  0.38204  0.68143
V17   V   0.18143  0.61796  0.31857
V18   V   0.18143  0.61796  0.68143
V19   V   0.18143  0.68143  0.38204
V20   V   0.18143  0.68143  0.61796
V21   V   0.18143  0.81857  0.11796
V22   V   0.18143  0.81857  0.88204
V23   V   0.18143  0.88204  0.18143
V24   V   0.18143  0.88204  0.81857
V25   V   0.31857  0.11796  0.31857
V26   V   0.31857  0.11796  0.68143
V27   V   0.31857  0.18143  0.38204
V28   V   0.31857  0.18143  0.61796
V29   V   0.31857  0.31857  0.11796
V30   V   0.31857  0.31857  0.88204
V31   V   0.31857  0.38204  0.18143
V32   V   0.31857  0.38204  0.81857
V33   V   0.31857  0.61796  0.18143
V34   V   0.31857  0.61796  0.81857
V35   V   0.31857  0.68143  0.11796
V36   V   0.31857  0.68143  0.88204
V37   V   0.31857  0.81857  0.38204
V38   V   0.31857  0.81857  0.61796
V39   V   0.31857  0.88204  0.31857
V40   V   0.31857  0.88204  0.68143
V41   V   0.38204  0.18143  0.31857
V42   V   0.38204  0.18143  0.68143
V43   V   0.38204  0.31857  0.18143
V44   V   0.38204  0.31857  0.81857
V45   V   0.38204  0.68143  0.18143
V46   V   0.38204  0.68143  0.81857
V47   V   0.38204  0.81857  0.31857
V48   V   0.38204  0.81857  0.68143
V49   V   0.61796  0.18143  0.31857
V50   V   0.61796  0.18143  0.68143
V51   V   0.61796  0.31857  0.18143
V52   V   0.61796  0.31857  0.81857
V53   V   0.61796  0.68143  0.18143
V54   V   0.61796  0.68143  0.81857
V55   V   0.61796  0.81857  0.31857
V56   V   0.61796  0.81857  0.68143
V57   V   0.68143  0.11796  0.31857
V58   V   0.68143  0.11796  0.68143
V59   V   0.68143  0.18143  0.38204
V60   V   0.68143  0.18143  0.61796
V61   V   0.68143  0.31857  0.11796
V62   V   0.68143  0.31857  0.88204
V63   V   0.68143  0.38204  0.18143
V64   V   0.68143  0.38204  0.81857
V65   V   0.68143  0.61796  0.18143
V66   V   0.68143  0.61796  0.81857
V67   V   0.68143  0.68143  0.11796
V68   V   0.68143  0.68143  0.88204
V69   V   0.68143  0.81857  0.38204
V70   V   0.68143  0.81857  0.61796
V71   V   0.68143  0.88204  0.31857
V72   V   0.68143  0.88204  0.68143
V73   V   0.81857  0.11796  0.18143
V74   V   0.81857  0.11796  0.81857
V75   V   0.81857  0.18143  0.11796
V76   V   0.81857  0.18143  0.88204
V77   V   0.81857  0.31857  0.38204
V78   V   0.81857  0.31857  0.61796
V79   V   0.81857  0.38204  0.31857
V80   V   0.81857  0.38204  0.68143
V81   V   0.81857  0.61796  0.31857
V82   V   0.81857  0.61796  0.68143
V83   V   0.81857  0.68143  0.38204
V84   V   0.81857  0.68143  0.61796
V85   V   0.81857  0.81857  0.11796
V86   V   0.81857  0.81857  0.88204
V87   V   0.81857  0.88204  0.18143
V88   V   0.81857  0.88204  0.81857
V89   V   0.88204  0.18143  0.18143
V90   V   0.88204  0.18143  0.81857
V91   V   0.88204  0.31857  0.31857
V92   V   0.88204  0.31857  0.68143
V93   V   0.88204  0.68143  0.31857
V94   V   0.88204  0.68143  0.68143
V95   V   0.88204  0.81857  0.18143
V96   V   0.88204  0.81857  0.81857
EC1    EC   0.04488  0.21827  0.21827
EC2    EC   0.04488  0.21827  0.78173
EC3    EC   0.04488  0.28173  0.28173
EC4    EC   0.04488  0.28173  0.71827
EC5    EC   0.04488  0.71827  0.28173
EC6    EC   0.04488  0.71827  0.71827
EC7    EC   0.04488  0.78173  0.21827
EC8    EC   0.04488  0.78173  0.78173
EC9    EC   0.21827  0.04488  0.21827
EC10   EC   0.21827  0.04488  0.78173
EC11   EC   0.21827  0.21827  0.04488
EC12   EC   0.21827  0.21827  0.95512
EC13   EC   0.21827  0.28173  0.45512
EC14   EC   0.21827  0.28173  0.54488
EC15   EC   0.21827  0.45512  0.28173
EC16   EC   0.21827  0.45512  0.71827
EC17   EC   0.21827  0.54488  0.28173
EC18   EC   0.21827  0.54488  0.71827
EC19   EC   0.21827  0.71827  0.45512
EC20   EC   0.21827  0.71827  0.54488
EC21   EC   0.21827  0.78173  0.04488
EC22   EC   0.21827  0.78173  0.95512
EC23   EC   0.21827  0.95512  0.21827
EC24   EC   0.21827  0.95512  0.78173
EC25   EC   0.28173  0.04488  0.28173
EC26   EC   0.28173  0.04488  0.71827
EC27   EC   0.28173  0.21827  0.45512
EC28   EC   0.28173  0.21827  0.54488
EC29   EC   0.28173  0.28173  0.04488
EC30   EC   0.28173  0.28173  0.95512
EC31   EC   0.28173  0.45512  0.21827
EC32   EC   0.28173  0.45512  0.78173
EC33   EC   0.28173  0.54488  0.21827
EC34   EC   0.28173  0.54488  0.78173
EC35   EC   0.28173  0.71827  0.04488
EC36   EC   0.28173  0.71827  0.95512
EC37   EC   0.28173  0.78173  0.45512
EC38   EC   0.28173  0.78173  0.54488
EC39   EC   0.28173  0.95512  0.28173
EC40   EC   0.28173  0.95512  0.71827
EC41   EC   0.45512  0.21827  0.28173
EC42   EC   0.45512  0.21827  0.71827
EC43   EC   0.45512  0.28173  0.21827
EC44   EC   0.45512  0.28173  0.78173
EC45   EC   0.45512  0.71827  0.21827
EC46   EC   0.45512  0.71827  0.78173
EC47   EC   0.45512  0.78173  0.28173
EC48   EC   0.45512  0.78173  0.71827
EC49   EC   0.54488  0.21827  0.28173
EC50   EC   0.54488  0.21827  0.71827
EC51   EC   0.54488  0.28173  0.21827
EC52   EC   0.54488  0.28173  0.78173
EC53   EC   0.54488  0.71827  0.21827
EC54   EC   0.54488  0.71827  0.78173
EC55   EC   0.54488  0.78173  0.28173
EC56   EC   0.54488  0.78173  0.71827
EC57   EC   0.71827  0.04488  0.28173
EC58   EC   0.71827  0.04488  0.71827
EC59   EC   0.71827  0.21827  0.45512
EC60   EC   0.71827  0.21827  0.54488
EC61   EC   0.71827  0.28173  0.04488
EC62   EC   0.71827  0.28173  0.95512
EC63   EC   0.71827  0.45512  0.21827
EC64   EC   0.71827  0.45512  0.78173
EC65   EC   0.71827  0.54488  0.21827
EC66   EC   0.71827  0.54488  0.78173
EC67   EC   0.71827  0.71827  0.04488
EC68   EC   0.71827  0.71827  0.95512
EC69   EC   0.71827  0.78173  0.45512
EC70   EC   0.71827  0.78173  0.54488
EC71   EC   0.71827  0.95512  0.28173
EC72   EC   0.71827  0.95512  0.71827
EC73   EC   0.78173  0.04488  0.21827
EC74   EC   0.78173  0.04488  0.78173
EC75   EC   0.78173  0.21827  0.04488
EC76   EC   0.78173  0.21827  0.95512
EC77   EC   0.78173  0.28173  0.45512
EC78   EC   0.78173  0.28173  0.54488
EC79   EC   0.78173  0.45512  0.28173
EC80   EC   0.78173  0.45512  0.71827
EC81   EC   0.78173  0.54488  0.28173
EC82   EC   0.78173  0.54488  0.71827
EC83   EC   0.78173  0.71827  0.45512
EC84   EC   0.78173  0.71827  0.54488
EC85   EC   0.78173  0.78173  0.04488
EC86   EC   0.78173  0.78173  0.95512
EC87   EC   0.78173  0.95512  0.21827
EC88   EC   0.78173  0.95512  0.78173
EC89   EC   0.95512  0.21827  0.21827
EC90   EC   0.95512  0.21827  0.78173
EC91   EC   0.95512  0.28173  0.28173
EC92   EC   0.95512  0.28173  0.71827
EC93   EC   0.95512  0.71827  0.28173
EC94   EC   0.95512  0.71827  0.71827
EC95   EC   0.95512  0.78173  0.21827
EC96   EC   0.95512  0.78173  0.78173
E1    E   0.00000  0.21827  0.21827
E2    E   0.00000  0.21827  0.78173
E3    E   0.00000  0.28173  0.28173
E4    E   0.00000  0.28173  0.71827
E5    E   0.00000  0.71827  0.28173
E6    E   0.00000  0.71827  0.71827
E7    E   0.00000  0.78173  0.21827
E8    E   0.00000  0.78173  0.78173
E9    E   0.04488  0.25000  0.25000
E10   E   0.04488  0.25000  0.75000
E11   E   0.04488  0.75000  0.25000
E12   E   0.04488  0.75000  0.75000
E13   E   0.08142  0.19985  0.19985
E14   E   0.08142  0.19985  0.80015
E15   E   0.08142  0.30015  0.30015
E16   E   0.08142  0.30015  0.69985
E17   E   0.08142  0.69985  0.30015
E18   E   0.08142  0.69985  0.69985
E19   E   0.08142  0.80015  0.19985
E20   E   0.08142  0.80015  0.80015
E21   E   0.14970  0.14970  0.18143
E22   E   0.14970  0.14970  0.81857
E23   E   0.14970  0.18143  0.14970
E24   E   0.14970  0.18143  0.85030
E25   E   0.14970  0.31857  0.35030
E26   E   0.14970  0.31857  0.64970
E27   E   0.14970  0.35030  0.31857
E28   E   0.14970  0.35030  0.68143
E29   E   0.14970  0.64970  0.31857
E30   E   0.14970  0.64970  0.68143
E31   E   0.14970  0.68143  0.35030
E32   E   0.14970  0.68143  0.64970
E33   E   0.14970  0.81857  0.14970
E34   E   0.14970  0.81857  0.85030
E35   E   0.14970  0.85030  0.18143
E36   E   0.14970  0.85030  0.81857
E37   E   0.18143  0.14970  0.14970
E38   E   0.18143  0.14970  0.85030
E39   E   0.18143  0.35030  0.35030
E40   E   0.18143  0.35030  0.64970
E41   E   0.18143  0.64970  0.35030
E42   E   0.18143  0.64970  0.64970
E43   E   0.18143  0.85030  0.14970
E44   E   0.18143  0.85030  0.85030
E45   E   0.19985  0.08142  0.19985
E46   E   0.19985  0.08142  0.80015
E47   E   0.19985  0.19985  0.08142
E48   E   0.19985  0.19985  0.91858
E49   E   0.19985  0.30015  0.41858
E50   E   0.19985  0.30015  0.58142
E51   E   0.19985  0.41858  0.30015
E52   E   0.19985  0.41858  0.69985
E53   E   0.19985  0.58142  0.30015
E54   E   0.19985  0.58142  0.69985
E55   E   0.19985  0.69985  0.41858
E56   E   0.19985  0.69985  0.58142
E57   E   0.19985  0.80015  0.08142
E58   E   0.19985  0.80015  0.91858
E59   E   0.19985  0.91858  0.19985
E60   E   0.19985  0.91858  0.80015
E61   E   0.21827  0.00000  0.21827
E62   E   0.21827  0.00000  0.78173
E63   E   0.21827  0.21827  0.00000
E64   E   0.21827  0.28173  0.50000
E65   E   0.21827  0.50000  0.28173
E66   E   0.21827  0.50000  0.71827
E67   E   0.21827  0.71827  0.50000
E68   E   0.21827  0.78173  0.00000
E69   E   0.25000  0.04488  0.25000
E70   E   0.25000  0.04488  0.75000
E71   E   0.25000  0.25000  0.04488
E72   E   0.25000  0.25000  0.45512
E73   E   0.25000  0.25000  0.54488
E74   E   0.25000  0.25000  0.95512
E75   E   0.25000  0.45512  0.25000
E76   E   0.25000  0.45512  0.75000
E77   E   0.25000  0.54488  0.25000
E78   E   0.25000  0.54488  0.75000
E79   E   0.25000  0.75000  0.04488
E80   E   0.25000  0.75000  0.45512
E81   E   0.25000  0.75000  0.54488
E82   E   0.25000  0.75000  0.95512
E83   E   0.25000  0.95512  0.25000
E84   E   0.25000  0.95512  0.75000
E85   E   0.28173  0.00000  0.28173
E86   E   0.28173  0.00000  0.71827
E87   E   0.28173  0.21827  0.50000
E88   E   0.28173  0.28173  0.00000
E89   E   0.28173  0.50000  0.21827
E90   E   0.28173  0.50000  0.78173
E91   E   0.28173  0.71827  0.00000
E92   E   0.28173  0.78173  0.50000
E93   E   0.30015  0.08142  0.30015
E94   E   0.30015  0.08142  0.69985
E95   E   0.30015  0.19985  0.41858
E96   E   0.30015  0.19985  0.58142
E97   E   0.30015  0.30015  0.08142
E98   E   0.30015  0.30015  0.91858
E99   E   0.30015  0.41858  0.19985
E100  E   0.30015  0.41858  0.80015
E101  E   0.30015  0.58142  0.19985
E102  E   0.30015  0.58142  0.80015
E103  E   0.30015  0.69985  0.08142
E104  E   0.30015  0.69985  0.91858
E105  E   0.30015  0.80015  0.41858
E106  E   0.30015  0.80015  0.58142
E107  E   0.30015  0.91858  0.30015
E108  E   0.30015  0.91858  0.69985
E109  E   0.31857  0.14970  0.35030
E110  E   0.31857  0.14970  0.64970
E111  E   0.31857  0.35030  0.14970
E112  E   0.31857  0.35030  0.85030
E113  E   0.31857  0.64970  0.14970
E114  E   0.31857  0.64970  0.85030
E115  E   0.31857  0.85030  0.35030
E116  E   0.31857  0.85030  0.64970
E117  E   0.35030  0.14970  0.31857
E118  E   0.35030  0.14970  0.68143
E119  E   0.35030  0.18143  0.35030
E120  E   0.35030  0.18143  0.64970
E121  E   0.35030  0.31857  0.14970
E122  E   0.35030  0.31857  0.85030
E123  E   0.35030  0.35030  0.18143
E124  E   0.35030  0.35030  0.81857
E125  E   0.35030  0.64970  0.18143
E126  E   0.35030  0.64970  0.81857
E127  E   0.35030  0.68143  0.14970
E128  E   0.35030  0.68143  0.85030
E129  E   0.35030  0.81857  0.35030
E130  E   0.35030  0.81857  0.64970
E131  E   0.35030  0.85030  0.31857
E132  E   0.35030  0.85030  0.68143
E133  E   0.41858  0.19985  0.30015
E134  E   0.41858  0.19985  0.69985
E135  E   0.41858  0.30015  0.19985
E136  E   0.41858  0.30015  0.80015
E137  E   0.41858  0.69985  0.19985
E138  E   0.41858  0.69985  0.80015
E139  E   0.41858  0.80015  0.30015
E140  E   0.41858  0.80015  0.69985
E141  E   0.45512  0.25000  0.25000
E142  E   0.45512  0.25000  0.75000
E143  E   0.45512  0.75000  0.25000
E144  E   0.45512  0.75000  0.75000
E145  E   0.50000  0.21827  0.28173
E146  E   0.50000  0.21827  0.71827
E147  E   0.50000  0.28173  0.21827
E148  E   0.50000  0.28173  0.78173
E149  E   0.50000  0.71827  0.21827
E150  E   0.50000  0.71827  0.78173
E151  E   0.50000  0.78173  0.28173
E152  E   0.50000  0.78173  0.71827
E153  E   0.54488  0.25000  0.25000
E154  E   0.54488  0.25000  0.75000
E155  E   0.54488  0.75000  0.25000
E156  E   0.54488  0.75000  0.75000
E157  E   0.58142  0.19985  0.30015
E158  E   0.58142  0.19985  0.69985
E159  E   0.58142  0.30015  0.19985
E160  E   0.58142  0.30015  0.80015
E161  E   0.58142  0.69985  0.19985
E162  E   0.58142  0.69985  0.80015
E163  E   0.58142  0.80015  0.30015
E164  E   0.58142  0.80015  0.69985
E165  E   0.64970  0.14970  0.31857
E166  E   0.64970  0.14970  0.68143
E167  E   0.64970  0.18143  0.35030
E168  E   0.64970  0.18143  0.64970
E169  E   0.64970  0.31857  0.14970
E170  E   0.64970  0.31857  0.85030
E171  E   0.64970  0.35030  0.18143
E172  E   0.64970  0.35030  0.81857
E173  E   0.64970  0.64970  0.18143
E174  E   0.64970  0.64970  0.81857
E175  E   0.64970  0.68143  0.14970
E176  E   0.64970  0.68143  0.85030
E177  E   0.64970  0.81857  0.35030
E178  E   0.64970  0.81857  0.64970
E179  E   0.64970  0.85030  0.31857
E180  E   0.64970  0.85030  0.68143
E181  E   0.68143  0.14970  0.35030
E182  E   0.68143  0.14970  0.64970
E183  E   0.68143  0.35030  0.14970
E184  E   0.68143  0.35030  0.85030
E185  E   0.68143  0.64970  0.14970
E186  E   0.68143  0.64970  0.85030
E187  E   0.68143  0.85030  0.35030
E188  E   0.68143  0.85030  0.64970
E189  E   0.69985  0.08142  0.30015
E190  E   0.69985  0.08142  0.69985
E191  E   0.69985  0.19985  0.41858
E192  E   0.69985  0.19985  0.58142
E193  E   0.69985  0.30015  0.08142
E194  E   0.69985  0.30015  0.91858
E195  E   0.69985  0.41858  0.19985
E196  E   0.69985  0.41858  0.80015
E197  E   0.69985  0.58142  0.19985
E198  E   0.69985  0.58142  0.80015
E199  E   0.69985  0.69985  0.08142
E200  E   0.69985  0.69985  0.91858
E201  E   0.69985  0.80015  0.41858
E202  E   0.69985  0.80015  0.58142
E203  E   0.69985  0.91858  0.30015
E204  E   0.69985  0.91858  0.69985
E205  E   0.71827  0.00000  0.28173
E206  E   0.71827  0.00000  0.71827
E207  E   0.71827  0.21827  0.50000
E208  E   0.71827  0.28173  0.00000
E209  E   0.71827  0.50000  0.21827
E210  E   0.71827  0.50000  0.78173
E211  E   0.71827  0.71827  0.00000
E212  E   0.71827  0.78173  0.50000
E213  E   0.75000  0.04488  0.25000
E214  E   0.75000  0.04488  0.75000
E215  E   0.75000  0.25000  0.04488
E216  E   0.75000  0.25000  0.45512
E217  E   0.75000  0.25000  0.54488
E218  E   0.75000  0.25000  0.95512
E219  E   0.75000  0.45512  0.25000
E220  E   0.75000  0.45512  0.75000
E221  E   0.75000  0.54488  0.25000
E222  E   0.75000  0.54488  0.75000
E223  E   0.75000  0.75000  0.04488
E224  E   0.75000  0.75000  0.45512
E225  E   0.75000  0.75000  0.54488
E226  E   0.75000  0.75000  0.95512
E227  E   0.75000  0.95512  0.25000
E228  E   0.75000  0.95512  0.75000
E229  E   0.78173  0.00000  0.21827
E230  E   0.78173  0.00000  0.78173
E231  E   0.78173  0.21827  0.00000
E232  E   0.78173  0.28173  0.50000
E233  E   0.78173  0.50000  0.28173
E234  E   0.78173  0.50000  0.71827
E235  E   0.78173  0.71827  0.50000
E236  E   0.78173  0.78173  0.00000
E237  E   0.80015  0.08142  0.19985
E238  E   0.80015  0.08142  0.80015
E239  E   0.80015  0.19985  0.08142
E240  E   0.80015  0.19985  0.91858
E241  E   0.80015  0.30015  0.41858
E242  E   0.80015  0.30015  0.58142
E243  E   0.80015  0.41858  0.30015
E244  E   0.80015  0.41858  0.69985
E245  E   0.80015  0.58142  0.30015
E246  E   0.80015  0.58142  0.69985
E247  E   0.80015  0.69985  0.41858
E248  E   0.80015  0.69985  0.58142
E249  E   0.80015  0.80015  0.08142
E250  E   0.80015  0.80015  0.91858
E251  E   0.80015  0.91858  0.19985
E252  E   0.80015  0.91858  0.80015
E253  E   0.81857  0.14970  0.14970
E254  E   0.81857  0.14970  0.85030
E255  E   0.81857  0.35030  0.35030
E256  E   0.81857  0.35030  0.64970
E257  E   0.81857  0.64970  0.35030
E258  E   0.81857  0.64970  0.64970
E259  E   0.81857  0.85030  0.14970
E260  E   0.81857  0.85030  0.85030
E261  E   0.85030  0.14970  0.18143
E262  E   0.85030  0.14970  0.81857
E263  E   0.85030  0.18143  0.14970
E264  E   0.85030  0.18143  0.85030
E265  E   0.85030  0.31857  0.35030
E266  E   0.85030  0.31857  0.64970
E267  E   0.85030  0.35030  0.31857
E268  E   0.85030  0.35030  0.68143
E269  E   0.85030  0.64970  0.31857
E270  E   0.85030  0.64970  0.68143
E271  E   0.85030  0.68143  0.35030
E272  E   0.85030  0.68143  0.64970
E273  E   0.85030  0.81857  0.14970
E274  E   0.85030  0.81857  0.85030
E275  E   0.85030  0.85030  0.18143
E276  E   0.85030  0.85030  0.81857
E277  E   0.91858  0.19985  0.19985
E278  E   0.91858  0.19985  0.80015
E279  E   0.91858  0.30015  0.30015
E280  E   0.91858  0.30015  0.69985
E281  E   0.91858  0.69985  0.30015
E282  E   0.91858  0.69985  0.69985
E283  E   0.91858  0.80015  0.19985
E284  E   0.91858  0.80015  0.80015
E285  E   0.95512  0.25000  0.25000
E286  E   0.95512  0.25000  0.75000
E287  E   0.95512  0.75000  0.25000
E288  E   0.95512  0.75000  0.75000
loop_
