data_tca_P63/mmc  hall_number: 488, V_con: 10
_audit_creation_date              2025-03-05
_audit_creation_method            'MOFbuilder_1.0'
_symmetry_space_group_name_H-M    'P1'
_symmetry_Int_Tables_number       1
_symmetry_cell_setting            triclinic
loop_
_symmetry_equiv_pos_as_xyz
  x,y,z
_cell_length_a                    10.0
_cell_length_b                    10.0
_cell_length_c                    36.3299
_cell_angle_alpha                 90.0
_cell_angle_beta                  90.0
_cell_angle_gamma                 120.0
loop_
_atom_site_label
_atom_site_type_symbol
_atom_site_fract_x
_atom_site_fract_y
_atom_site_fract_z
V1    V   0.33333  0.66666  0.11237
V2    V   0.33333  0.66666  0.38763
V3    V   0.33333  0.66667  0.11237
V4    V   0.33333  0.66667  0.38763
V5    V   0.33334  0.66667  0.11237
V6    V   0.33334  0.66667  0.38763
V7    V   0.66666  0.33333  0.61237
V8    V   0.66666  0.33333  0.88763
V9    V   0.66667  0.33333  0.61237
V10   V   0.66667  0.33333  0.88763
V11   V   0.66667  0.33334  0.61237
V12   V   0.66667  0.33334  0.88763
E1    E   0.00000  0.50000  0.00000
E2    E   0.00000  0.50000  0.50000
E3    E   0.16666  0.33333  0.61237
E4    E   0.16666  0.33333  0.88763
E5    E   0.16666  0.83333  0.61237
E6    E   0.16666  0.83333  0.88763
E7    E   0.16667  0.33333  0.61237
E8    E   0.16667  0.33333  0.88763
E9    E   0.16667  0.83334  0.61237
E10   E   0.16667  0.83334  0.88763
E11   E   0.33333  0.16666  0.11237
E12   E   0.33333  0.16666  0.38763
E13   E   0.33333  0.16667  0.11237
E14   E   0.33333  0.16667  0.38763
E15   E   0.33333  0.66666  0.25000
E16   E   0.33333  0.66667  0.25000
E17   E   0.33334  0.66667  0.25000
E18   E   0.50000  0.00000  0.00000
E19   E   0.50000  0.00000  0.50000
E20   E   0.50000  0.50000  0.00000
E21   E   0.50000  0.50000  0.50000
E22   E   0.66666  0.33333  0.75000
E23   E   0.66667  0.33333  0.75000
E24   E   0.66667  0.33334  0.75000
E25   E   0.66667  0.83333  0.61237
E26   E   0.66667  0.83333  0.88763
E27   E   0.66667  0.83334  0.61237
E28   E   0.66667  0.83334  0.88763
E29   E   0.83333  0.16666  0.11237
E30   E   0.83333  0.16666  0.38763
E31   E   0.83333  0.66667  0.11237
E32   E   0.83333  0.66667  0.38763
E33   E   0.83334  0.16667  0.11237
E34   E   0.83334  0.16667  0.38763
E35   E   0.83334  0.66667  0.11237
E36   E   0.83334  0.66667  0.38763
loop_
