data_tcf_Fddd:2  hall_number: 336, V_con: 10
_audit_creation_date              2025-03-05
_audit_creation_method            'MOFbuilder_1.0'
_symmetry_space_group_name_H-M    'P1'
_symmetry_Int_Tables_number       1
_symmetry_cell_setting            triclinic
loop_
_symmetry_equiv_pos_as_xyz
  x,y,z
_cell_length_a                    10.0
_cell_length_b                    17.3206
_cell_length_c                    69.2817
_cell_angle_alpha                 90.0
_cell_angle_beta                  90.0
_cell_angle_gamma                 90.0
loop_
_atom_site_label
_atom_site_type_symbol
_atom_site_fract_x
_atom_site_fract_y
_atom_site_fract_z
V1    V   0.12500  0.12500  0.31250
V2    V   0.12500  0.12500  0.93750
V3    V   0.12500  0.62500  0.43750
V4    V   0.12500  0.62500  0.81250
V5    V   0.37500  0.37500  0.06250
V6    V   0.37500  0.37500  0.68750
V7    V   0.37500  0.87500  0.18750
V8    V   0.37500  0.87500  0.56250
V9    V   0.62500  0.12500  0.43750
V10   V   0.62500  0.12500  0.81250
V11   V   0.62500  0.62500  0.31250
V12   V   0.62500  0.62500  0.93750
V13   V   0.87500  0.37500  0.18750
V14   V   0.87500  0.37500  0.56250
V15   V   0.87500  0.87500  0.06250
V16   V   0.87500  0.87500  0.68750
E1    E   0.00000  0.00000  0.00000
E2    E   0.00000  0.25000  0.25000
E3    E   0.00000  0.50000  0.50000
E4    E   0.00000  0.75000  0.75000
E5    E   0.12500  0.12500  0.06250
E6    E   0.12500  0.12500  0.18750
E7    E   0.12500  0.12500  0.43750
E8    E   0.12500  0.12500  0.56250
E9    E   0.12500  0.12500  0.68750
E10   E   0.12500  0.12500  0.81250
E11   E   0.12500  0.37500  0.12500
E12   E   0.12500  0.37500  0.62500
E13   E   0.12500  0.62500  0.06250
E14   E   0.12500  0.62500  0.18750
E15   E   0.12500  0.62500  0.31250
E16   E   0.12500  0.62500  0.56250
E17   E   0.12500  0.62500  0.68750
E18   E   0.12500  0.62500  0.93750
E19   E   0.12500  0.87500  0.12500
E20   E   0.12500  0.87500  0.62500
E21   E   0.25000  0.00000  0.25000
E22   E   0.25000  0.25000  0.00000
E23   E   0.25000  0.50000  0.75000
E24   E   0.25000  0.75000  0.50000
E25   E   0.37500  0.12500  0.37500
E26   E   0.37500  0.12500  0.87500
E27   E   0.37500  0.37500  0.18750
E28   E   0.37500  0.37500  0.31250
E29   E   0.37500  0.37500  0.43750
E30   E   0.37500  0.37500  0.56250
E31   E   0.37500  0.37500  0.81250
E32   E   0.37500  0.37500  0.93750
E33   E   0.37500  0.62500  0.37500
E34   E   0.37500  0.62500  0.87500
E35   E   0.37500  0.87500  0.06250
E36   E   0.37500  0.87500  0.31250
E37   E   0.37500  0.87500  0.43750
E38   E   0.37500  0.87500  0.68750
E39   E   0.37500  0.87500  0.81250
E40   E   0.37500  0.87500  0.93750
E41   E   0.50000  0.00000  0.50000
E42   E   0.50000  0.25000  0.75000
E43   E   0.50000  0.50000  0.00000
E44   E   0.50000  0.75000  0.25000
E45   E   0.62500  0.12500  0.06250
E46   E   0.62500  0.12500  0.18750
E47   E   0.62500  0.12500  0.31250
E48   E   0.62500  0.12500  0.56250
E49   E   0.62500  0.12500  0.68750
E50   E   0.62500  0.12500  0.93750
E51   E   0.62500  0.37500  0.12500
E52   E   0.62500  0.37500  0.62500
E53   E   0.62500  0.62500  0.06250
E54   E   0.62500  0.62500  0.18750
E55   E   0.62500  0.62500  0.43750
E56   E   0.62500  0.62500  0.56250
E57   E   0.62500  0.62500  0.68750
E58   E   0.62500  0.62500  0.81250
E59   E   0.62500  0.87500  0.12500
E60   E   0.62500  0.87500  0.62500
E61   E   0.75000  0.00000  0.75000
E62   E   0.75000  0.25000  0.50000
E63   E   0.75000  0.50000  0.25000
E64   E   0.75000  0.75000  0.00000
E65   E   0.87500  0.12500  0.37500
E66   E   0.87500  0.12500  0.87500
E67   E   0.87500  0.37500  0.06250
E68   E   0.87500  0.37500  0.31250
E69   E   0.87500  0.37500  0.43750
E70   E   0.87500  0.37500  0.68750
E71   E   0.87500  0.37500  0.81250
E72   E   0.87500  0.37500  0.93750
E73   E   0.87500  0.62500  0.37500
E74   E   0.87500  0.62500  0.87500
E75   E   0.87500  0.87500  0.18750
E76   E   0.87500  0.87500  0.31250
E77   E   0.87500  0.87500  0.43750
E78   E   0.87500  0.87500  0.56250
E79   E   0.87500  0.87500  0.81250
E80   E   0.87500  0.87500  0.93750
loop_
