data_tcs_I4/mmm  hall_number: 424, V_con: 5, EC_con: 4
_audit_creation_date              2025-03-05
_audit_creation_method            'MOFbuilder_1.0'
_symmetry_space_group_name_H-M    'P1'
_symmetry_Int_Tables_number       1
_symmetry_cell_setting            triclinic
loop_
_symmetry_equiv_pos_as_xyz
  x,y,z
_cell_length_a                    18.006899999999998
_cell_length_b                    18.006899999999998
_cell_length_c                    37.4072
_cell_angle_alpha                 90.0
_cell_angle_beta                  90.0
_cell_angle_gamma                 90.0
loop_
_atom_site_label
_atom_site_type_symbol
_atom_site_fract_x
_atom_site_fract_y
_atom_site_fract_z
V1    V   0.00000  0.00000  0.36634
V2    V   0.00000  0.00000  0.63366
V3    V   0.50000  0.50000  0.13366
V4    V   0.50000  0.50000  0.86634
EC1    EC   0.00000  0.50000  0.25000
EC2    EC   0.00000  0.50000  0.75000
EC3    EC   0.50000  0.00000  0.25000
EC4    EC   0.50000  0.00000  0.75000
E1    E   0.00000  0.00000  0.50000
E2    E   0.00000  0.25000  0.30817
E3    E   0.00000  0.25000  0.69183
E4    E   0.00000  0.75000  0.30817
E5    E   0.00000  0.75000  0.69183
E6    E   0.25000  0.00000  0.30817
E7    E   0.25000  0.00000  0.69183
E8    E   0.25000  0.50000  0.19183
E9    E   0.25000  0.50000  0.80817
E10   E   0.50000  0.25000  0.19183
E11   E   0.50000  0.25000  0.80817
E12   E   0.50000  0.50000  0.00000
E13   E   0.50000  0.75000  0.19183
E14   E   0.50000  0.75000  0.80817
E15   E   0.75000  0.00000  0.30817
E16   E   0.75000  0.00000  0.69183
E17   E   0.75000  0.50000  0.19183
E18   E   0.75000  0.50000  0.80817
loop_
