data_tfb_Fm-3m  hall_number: 523, V_con: 4, EC_con: 3
_audit_creation_date              2025-03-05
_audit_creation_method            'MOFbuilder_1.0'
_symmetry_space_group_name_H-M    'P1'
_symmetry_Int_Tables_number       1
_symmetry_cell_setting            triclinic
loop_
_symmetry_equiv_pos_as_xyz
  x,y,z
_cell_length_a                    54.14189999999999
_cell_length_b                    54.14189999999999
_cell_length_c                    54.14189999999999
_cell_angle_alpha                 90.0
_cell_angle_beta                  90.0
_cell_angle_gamma                 90.0
loop_
_atom_site_label
_atom_site_type_symbol
_atom_site_fract_x
_atom_site_fract_y
_atom_site_fract_z
V1    V   0.00000  0.00000  0.18404
V2    V   0.00000  0.00000  0.81596
V3    V   0.00000  0.18404  0.00000
V4    V   0.00000  0.31596  0.50000
V5    V   0.00000  0.50000  0.31596
V6    V   0.00000  0.50000  0.68404
V7    V   0.00000  0.68404  0.50000
V8    V   0.00000  0.81596  0.00000
V9    V   0.18404  0.00000  0.00000
V10   V   0.18404  0.50000  0.50000
V11   V   0.31596  0.00000  0.50000
V12   V   0.31596  0.50000  0.00000
V13   V   0.50000  0.00000  0.31596
V14   V   0.50000  0.00000  0.68404
V15   V   0.50000  0.18404  0.50000
V16   V   0.50000  0.31596  0.00000
V17   V   0.50000  0.50000  0.18404
V18   V   0.50000  0.50000  0.81596
V19   V   0.50000  0.68404  0.00000
V20   V   0.50000  0.81596  0.50000
V21   V   0.68404  0.00000  0.50000
V22   V   0.68404  0.50000  0.00000
V23   V   0.81596  0.00000  0.00000
V24   V   0.81596  0.50000  0.50000
EC1    EC   0.00000  0.18470  0.18470
EC2    EC   0.00000  0.18470  0.81530
EC3    EC   0.00000  0.31530  0.31530
EC4    EC   0.00000  0.31530  0.68470
EC5    EC   0.00000  0.68470  0.31530
EC6    EC   0.00000  0.68470  0.68470
EC7    EC   0.00000  0.81530  0.18470
EC8    EC   0.00000  0.81530  0.81530
EC9    EC   0.18470  0.00000  0.18470
EC10   EC   0.18470  0.00000  0.81530
EC11   EC   0.18470  0.18470  0.00000
EC12   EC   0.18470  0.31530  0.50000
EC13   EC   0.18470  0.50000  0.31530
EC14   EC   0.18470  0.50000  0.68470
EC15   EC   0.18470  0.68470  0.50000
EC16   EC   0.18470  0.81530  0.00000
EC17   EC   0.31530  0.00000  0.31530
EC18   EC   0.31530  0.00000  0.68470
EC19   EC   0.31530  0.18470  0.50000
EC20   EC   0.31530  0.31530  0.00000
EC21   EC   0.31530  0.50000  0.18470
EC22   EC   0.31530  0.50000  0.81530
EC23   EC   0.31530  0.68470  0.00000
EC24   EC   0.31530  0.81530  0.50000
EC25   EC   0.50000  0.18470  0.31530
EC26   EC   0.50000  0.18470  0.68470
EC27   EC   0.50000  0.31530  0.18470
EC28   EC   0.50000  0.31530  0.81530
EC29   EC   0.50000  0.68470  0.18470
EC30   EC   0.50000  0.68470  0.81530
EC31   EC   0.50000  0.81530  0.31530
EC32   EC   0.50000  0.81530  0.68470
EC33   EC   0.68470  0.00000  0.31530
EC34   EC   0.68470  0.00000  0.68470
EC35   EC   0.68470  0.18470  0.50000
EC36   EC   0.68470  0.31530  0.00000
EC37   EC   0.68470  0.50000  0.18470
EC38   EC   0.68470  0.50000  0.81530
EC39   EC   0.68470  0.68470  0.00000
EC40   EC   0.68470  0.81530  0.50000
EC41   EC   0.81530  0.00000  0.18470
EC42   EC   0.81530  0.00000  0.81530
EC43   EC   0.81530  0.18470  0.00000
EC44   EC   0.81530  0.31530  0.50000
EC45   EC   0.81530  0.50000  0.31530
EC46   EC   0.81530  0.50000  0.68470
EC47   EC   0.81530  0.68470  0.50000
EC48   EC   0.81530  0.81530  0.00000
E1    E   0.00000  0.09235  0.18437
E2    E   0.00000  0.09235  0.81563
E3    E   0.00000  0.18437  0.09235
E4    E   0.00000  0.18437  0.90765
E5    E   0.00000  0.25000  0.25000
E6    E   0.00000  0.25000  0.75000
E7    E   0.00000  0.31563  0.40765
E8    E   0.00000  0.31563  0.59235
E9    E   0.00000  0.40765  0.31563
E10   E   0.00000  0.40765  0.68437
E11   E   0.00000  0.59235  0.31563
E12   E   0.00000  0.59235  0.68437
E13   E   0.00000  0.68437  0.40765
E14   E   0.00000  0.68437  0.59235
E15   E   0.00000  0.75000  0.25000
E16   E   0.00000  0.75000  0.75000
E17   E   0.00000  0.81563  0.09235
E18   E   0.00000  0.81563  0.90765
E19   E   0.00000  0.90765  0.18437
E20   E   0.00000  0.90765  0.81563
E21   E   0.09235  0.00000  0.18437
E22   E   0.09235  0.00000  0.81563
E23   E   0.09235  0.18437  0.00000
E24   E   0.09235  0.31563  0.50000
E25   E   0.09235  0.50000  0.31563
E26   E   0.09235  0.50000  0.68437
E27   E   0.09235  0.68437  0.50000
E28   E   0.09235  0.81563  0.00000
E29   E   0.18437  0.00000  0.09235
E30   E   0.18437  0.00000  0.90765
E31   E   0.18437  0.09235  0.00000
E32   E   0.18437  0.40765  0.50000
E33   E   0.18437  0.50000  0.40765
E34   E   0.18437  0.50000  0.59235
E35   E   0.18437  0.59235  0.50000
E36   E   0.18437  0.90765  0.00000
E37   E   0.25000  0.00000  0.25000
E38   E   0.25000  0.00000  0.75000
E39   E   0.25000  0.25000  0.00000
E40   E   0.25000  0.25000  0.50000
E41   E   0.25000  0.50000  0.25000
E42   E   0.25000  0.50000  0.75000
E43   E   0.25000  0.75000  0.00000
E44   E   0.25000  0.75000  0.50000
E45   E   0.31563  0.00000  0.40765
E46   E   0.31563  0.00000  0.59235
E47   E   0.31563  0.09235  0.50000
E48   E   0.31563  0.40765  0.00000
E49   E   0.31563  0.50000  0.09235
E50   E   0.31563  0.50000  0.90765
E51   E   0.31563  0.59235  0.00000
E52   E   0.31563  0.90765  0.50000
E53   E   0.40765  0.00000  0.31563
E54   E   0.40765  0.00000  0.68437
E55   E   0.40765  0.18437  0.50000
E56   E   0.40765  0.31563  0.00000
E57   E   0.40765  0.50000  0.18437
E58   E   0.40765  0.50000  0.81563
E59   E   0.40765  0.68437  0.00000
E60   E   0.40765  0.81563  0.50000
E61   E   0.50000  0.09235  0.31563
E62   E   0.50000  0.09235  0.68437
E63   E   0.50000  0.18437  0.40765
E64   E   0.50000  0.18437  0.59235
E65   E   0.50000  0.25000  0.25000
E66   E   0.50000  0.25000  0.75000
E67   E   0.50000  0.31563  0.09235
E68   E   0.50000  0.31563  0.90765
E69   E   0.50000  0.40765  0.18437
E70   E   0.50000  0.40765  0.81563
E71   E   0.50000  0.59235  0.18437
E72   E   0.50000  0.59235  0.81563
E73   E   0.50000  0.68437  0.09235
E74   E   0.50000  0.68437  0.90765
E75   E   0.50000  0.75000  0.25000
E76   E   0.50000  0.75000  0.75000
E77   E   0.50000  0.81563  0.40765
E78   E   0.50000  0.81563  0.59235
E79   E   0.50000  0.90765  0.31563
E80   E   0.50000  0.90765  0.68437
E81   E   0.59235  0.00000  0.31563
E82   E   0.59235  0.00000  0.68437
E83   E   0.59235  0.18437  0.50000
E84   E   0.59235  0.31563  0.00000
E85   E   0.59235  0.50000  0.18437
E86   E   0.59235  0.50000  0.81563
E87   E   0.59235  0.68437  0.00000
E88   E   0.59235  0.81563  0.50000
E89   E   0.68437  0.00000  0.40765
E90   E   0.68437  0.00000  0.59235
E91   E   0.68437  0.09235  0.50000
E92   E   0.68437  0.40765  0.00000
E93   E   0.68437  0.50000  0.09235
E94   E   0.68437  0.50000  0.90765
E95   E   0.68437  0.59235  0.00000
E96   E   0.68437  0.90765  0.50000
E97   E   0.75000  0.00000  0.25000
E98   E   0.75000  0.00000  0.75000
E99   E   0.75000  0.25000  0.00000
E100  E   0.75000  0.25000  0.50000
E101  E   0.75000  0.50000  0.25000
E102  E   0.75000  0.50000  0.75000
E103  E   0.75000  0.75000  0.00000
E104  E   0.75000  0.75000  0.50000
E105  E   0.81563  0.00000  0.09235
E106  E   0.81563  0.00000  0.90765
E107  E   0.81563  0.09235  0.00000
E108  E   0.81563  0.40765  0.50000
E109  E   0.81563  0.50000  0.40765
E110  E   0.81563  0.50000  0.59235
E111  E   0.81563  0.59235  0.50000
E112  E   0.81563  0.90765  0.00000
E113  E   0.90765  0.00000  0.18437
E114  E   0.90765  0.00000  0.81563
E115  E   0.90765  0.18437  0.00000
E116  E   0.90765  0.31563  0.50000
E117  E   0.90765  0.50000  0.31563
E118  E   0.90765  0.50000  0.68437
E119  E   0.90765  0.68437  0.50000
E120  E   0.90765  0.81563  0.00000
loop_
