data_tfl_Fdd2  hall_number: 212, V_con: 4, EC_con: 3
_audit_creation_date              2025-03-05
_audit_creation_method            'MOFbuilder_1.0'
_symmetry_space_group_name_H-M    'P1'
_symmetry_Int_Tables_number       1
_symmetry_cell_setting            triclinic
loop_
_symmetry_equiv_pos_as_xyz
  x,y,z
_cell_length_a                    22.308500000000002
_cell_length_b                    41.7314
_cell_length_c                    51.4387
_cell_angle_alpha                 90.0
_cell_angle_beta                  90.0
_cell_angle_gamma                 90.0
loop_
_atom_site_label
_atom_site_type_symbol
_atom_site_fract_x
_atom_site_fract_y
_atom_site_fract_z
V1    V   0.00000  0.00000  0.00000
V2    V   0.00000  0.50000  0.50000
V3    V   0.25000  0.25000  0.25000
V4    V   0.25000  0.75000  0.75000
V5    V   0.50000  0.00000  0.50000
V6    V   0.50000  0.50000  0.00000
V7    V   0.75000  0.25000  0.75000
V8    V   0.75000  0.75000  0.25000
EC1    EC   0.06197  0.18480  0.87919
EC2    EC   0.06197  0.68480  0.37919
EC3    EC   0.18803  0.43480  0.12919
EC4    EC   0.18803  0.93480  0.62919
EC5    EC   0.31197  0.06520  0.12919
EC6    EC   0.31197  0.56520  0.62919
EC7    EC   0.43803  0.31520  0.87919
EC8    EC   0.43803  0.81520  0.37919
EC9    EC   0.56197  0.18480  0.37919
EC10   EC   0.56197  0.68480  0.87919
EC11   EC   0.68803  0.43480  0.62919
EC12   EC   0.68803  0.93480  0.12919
EC13   EC   0.81197  0.06520  0.62919
EC14   EC   0.81197  0.56520  0.12919
EC15   EC   0.93803  0.31520  0.37919
EC16   EC   0.93803  0.81520  0.87919
E1    E   0.00000  0.00000  0.62919
E2    E   0.00000  0.50000  0.12919
E3    E   0.03098  0.09240  0.93960
E4    E   0.03098  0.59240  0.43960
E5    E   0.09402  0.28260  0.31460
E6    E   0.09402  0.78260  0.81460
E7    E   0.15598  0.03260  0.06460
E8    E   0.15598  0.53260  0.56460
E9    E   0.21902  0.34240  0.18960
E10   E   0.21902  0.84240  0.68960
E11   E   0.25000  0.25000  0.87919
E12   E   0.25000  0.75000  0.37919
E13   E   0.28098  0.15760  0.18960
E14   E   0.28098  0.65760  0.68960
E15   E   0.34402  0.46740  0.06460
E16   E   0.34402  0.96740  0.56460
E17   E   0.40598  0.21740  0.31460
E18   E   0.40598  0.71740  0.81460
E19   E   0.46902  0.40760  0.93960
E20   E   0.46902  0.90760  0.43960
E21   E   0.50000  0.00000  0.12919
E22   E   0.50000  0.50000  0.62919
E23   E   0.53098  0.09240  0.43960
E24   E   0.53098  0.59240  0.93960
E25   E   0.59402  0.28260  0.81460
E26   E   0.59402  0.78260  0.31460
E27   E   0.65598  0.03260  0.56460
E28   E   0.65598  0.53260  0.06460
E29   E   0.71902  0.34240  0.68960
E30   E   0.71902  0.84240  0.18960
E31   E   0.75000  0.25000  0.37919
E32   E   0.75000  0.75000  0.87919
E33   E   0.78098  0.15760  0.68960
E34   E   0.78098  0.65760  0.18960
E35   E   0.84402  0.46740  0.56460
E36   E   0.84402  0.96740  0.06460
E37   E   0.90598  0.21740  0.81460
E38   E   0.90598  0.71740  0.31460
E39   E   0.96902  0.40760  0.43960
E40   E   0.96902  0.90760  0.93960
loop_
