data_thj_I212121  hall_number: 124, V_con: 4, EC_con: 4
_audit_creation_date              2025-03-05
_audit_creation_method            'MOFbuilder_1.0'
_symmetry_space_group_name_H-M    'P1'
_symmetry_Int_Tables_number       1
_symmetry_cell_setting            triclinic
loop_
_symmetry_equiv_pos_as_xyz
  x,y,z
_cell_length_a                    15.2206
_cell_length_b                    18.119
_cell_length_c                    41.06099999999999
_cell_angle_alpha                 90.0
_cell_angle_beta                  90.0
_cell_angle_gamma                 90.0
loop_
_atom_site_label
_atom_site_type_symbol
_atom_site_fract_x
_atom_site_fract_y
_atom_site_fract_z
V1    V   0.13908  0.50000  0.75000
V2    V   0.36092  0.50000  0.25000
V3    V   0.63908  0.00000  0.25000
V4    V   0.86092  0.00000  0.75000
EC1    EC   0.00000  0.25000  0.42101
EC2    EC   0.00000  0.75000  0.07899
EC3    EC   0.50000  0.25000  0.57899
EC4    EC   0.50000  0.75000  0.92101
E1    E   0.00000  0.25000  0.75000
E2    E   0.00000  0.75000  0.75000
E3    E   0.18046  0.37500  0.33550
E4    E   0.18046  0.62500  0.16450
E5    E   0.25000  0.25000  0.50000
E6    E   0.25000  0.75000  0.00000
E7    E   0.31954  0.37500  0.66450
E8    E   0.31954  0.62500  0.83550
E9    E   0.50000  0.25000  0.25000
E10   E   0.50000  0.75000  0.25000
E11   E   0.68046  0.12500  0.66450
E12   E   0.68046  0.87500  0.83550
E13   E   0.75000  0.25000  0.50000
E14   E   0.75000  0.75000  0.00000
E15   E   0.81954  0.12500  0.33550
E16   E   0.81954  0.87500  0.16450
loop_
