data_tna_R32:H  hall_number: 445, V_con: 3, EC_con: 3
_audit_creation_date              2025-03-05
_audit_creation_method            'MOFbuilder_1.0'
_symmetry_space_group_name_H-M    'P1'
_symmetry_Int_Tables_number       1
_symmetry_cell_setting            triclinic
loop_
_symmetry_equiv_pos_as_xyz
  x,y,z
_cell_length_a                    55.646699999999996
_cell_length_b                    55.646699999999996
_cell_length_c                    26.3064
_cell_angle_alpha                 90.0
_cell_angle_beta                  90.0
_cell_angle_gamma                 120.0
loop_
_atom_site_label
_atom_site_type_symbol
_atom_site_fract_x
_atom_site_fract_y
_atom_site_fract_z
V1    V   0.00000  0.00000  0.10375
V2    V   0.00000  0.00000  0.89625
V3    V   0.00000  0.10375  0.00000
V4    V   0.00000  0.89625  0.00000
V5    V   0.10375  0.00000  0.00000
V6    V   0.89625  0.00000  0.00000
EC1    EC   0.00000  0.00000  0.28346
EC2    EC   0.00000  0.00000  0.71654
EC3    EC   0.00000  0.28346  0.00000
EC4    EC   0.00000  0.71654  0.00000
EC5    EC   0.28346  0.00000  0.00000
EC6    EC   0.71654  0.00000  0.00000
E1    E   0.00000  0.00000  0.19360
E2    E   0.00000  0.00000  0.80640
E3    E   0.00000  0.05188  0.05188
E4    E   0.00000  0.19360  0.00000
E5    E   0.00000  0.80640  0.00000
E6    E   0.00000  0.94812  0.94812
E7    E   0.02494  0.33333  0.83333
E8    E   0.05188  0.00000  0.05188
E9    E   0.05188  0.05188  0.00000
E10   E   0.16667  0.66667  0.97506
E11   E   0.19360  0.00000  0.00000
E12   E   0.33333  0.83333  0.02494
E13   E   0.66667  0.97506  0.16667
E14   E   0.80640  0.00000  0.00000
E15   E   0.83333  0.02494  0.33333
E16   E   0.94812  0.00000  0.94812
E17   E   0.94812  0.94812  0.00000
E18   E   0.97506  0.16667  0.66667
loop_
