data_tnn_P-6m2  hall_number: 481, V_con: 5, EC_con: 5
_audit_creation_date              2025-03-05
_audit_creation_method            'MOFbuilder_1.0'
_symmetry_space_group_name_H-M    'P1'
_symmetry_Int_Tables_number       1
_symmetry_cell_setting            triclinic
loop_
_symmetry_equiv_pos_as_xyz
  x,y,z
_cell_length_a                    27.320500000000003
_cell_length_b                    27.320500000000003
_cell_length_c                    10.0
_cell_angle_alpha                 90.0
_cell_angle_beta                  90.0
_cell_angle_gamma                 120.0
loop_
_atom_site_label
_atom_site_type_symbol
_atom_site_fract_x
_atom_site_fract_y
_atom_site_fract_z
V1    V   0.00000  0.00000  0.00000
EC1    EC   0.42265  0.21132  0.00000
EC2    EC   0.42265  0.21133  0.00000
EC3    EC   0.78867  0.21132  0.00000
EC4    EC   0.78867  0.57735  0.00000
EC5    EC   0.78868  0.21133  0.00000
EC6    EC   0.78868  0.57735  0.00000
E1    E   0.00000  0.00000  0.50000
E2    E   0.21132  0.10566  0.00000
E3    E   0.42265  0.21132  0.50000
E4    E   0.42265  0.21133  0.50000
E5    E   0.60566  0.21132  0.00000
E6    E   0.60566  0.39434  0.00000
E7    E   0.60566  0.21132  0.00000
E8    E   0.60566  0.39434  0.00000
E9    E   0.78867  0.21132  0.50000
E10   E   0.78867  0.57735  0.50000
E11   E   0.78868  0.21133  0.50000
E12   E   0.78868  0.39434  0.00000
E13   E   0.78868  0.39434  0.00000
E14   E   0.78868  0.57735  0.50000
E15   E   0.89434  0.10566  0.00000
E16   E   0.89434  0.78868  0.00000
loop_
