data_tpt-a_P6/mcc  hall_number: 486, V_con: 4, EC_con: 4
_audit_creation_date              2025-03-05
_audit_creation_method            'MOFbuilder_1.0'
_symmetry_space_group_name_H-M    'P1'
_symmetry_Int_Tables_number       1
_symmetry_cell_setting            triclinic
loop_
_symmetry_equiv_pos_as_xyz
  x,y,z
_cell_length_a                    24.9639
_cell_length_b                    24.9639
_cell_length_c                    56.389300000000006
_cell_angle_alpha                 90.0
_cell_angle_beta                  90.0
_cell_angle_gamma                 120.0
loop_
_atom_site_label
_atom_site_type_symbol
_atom_site_fract_x
_atom_site_fract_y
_atom_site_fract_z
V1    V   0.16354  0.44014  0.31270
V2    V   0.16354  0.44014  0.68730
V3    V   0.16354  0.72340  0.18730
V4    V   0.16354  0.72340  0.81270
V5    V   0.27660  0.44014  0.18730
V6    V   0.27660  0.44014  0.81270
V7    V   0.27660  0.83646  0.31270
V8    V   0.27660  0.83646  0.68730
V9    V   0.44014  0.16354  0.18730
V10   V   0.44014  0.16354  0.81270
V11   V   0.44014  0.27660  0.31270
V12   V   0.44014  0.27660  0.68730
V13   V   0.55986  0.72340  0.31270
V14   V   0.55986  0.72340  0.68730
V15   V   0.55986  0.83646  0.18730
V16   V   0.55986  0.83646  0.81270
V17   V   0.72340  0.16354  0.31270
V18   V   0.72340  0.16354  0.68730
V19   V   0.72340  0.55986  0.18730
V20   V   0.72340  0.55986  0.81270
V21   V   0.83646  0.27660  0.18730
V22   V   0.83646  0.27660  0.81270
V23   V   0.83646  0.55986  0.31270
V24   V   0.83646  0.55986  0.68730
EC1    EC   0.08266  0.46159  0.41133
EC2    EC   0.08266  0.46159  0.58867
EC3    EC   0.08266  0.62107  0.08867
EC4    EC   0.08266  0.62107  0.91133
EC5    EC   0.37893  0.46159  0.08867
EC6    EC   0.37893  0.46159  0.91133
EC7    EC   0.37893  0.91734  0.41133
EC8    EC   0.37893  0.91734  0.58867
EC9    EC   0.46159  0.08266  0.08867
EC10   EC   0.46159  0.08266  0.91133
EC11   EC   0.46159  0.37893  0.41133
EC12   EC   0.46159  0.37893  0.58867
EC13   EC   0.53841  0.62107  0.41133
EC14   EC   0.53841  0.62107  0.58867
EC15   EC   0.53841  0.91734  0.08867
EC16   EC   0.53841  0.91734  0.91133
EC17   EC   0.62107  0.08266  0.41133
EC18   EC   0.62107  0.08266  0.58867
EC19   EC   0.62107  0.53841  0.08867
EC20   EC   0.62107  0.53841  0.91133
EC21   EC   0.91734  0.37893  0.08867
EC22   EC   0.91734  0.37893  0.91133
EC23   EC   0.91734  0.53841  0.41133
EC24   EC   0.91734  0.53841  0.58867
E1    E   0.00000  0.35838  0.25000
E2    E   0.00000  0.35838  0.75000
E3    E   0.00000  0.50000  0.18730
E4    E   0.00000  0.50000  0.31270
E5    E   0.00000  0.50000  0.68730
E6    E   0.00000  0.50000  0.81270
E7    E   0.00000  0.64162  0.25000
E8    E   0.00000  0.64162  0.75000
E9    E   0.08266  0.46159  0.50000
E10   E   0.08266  0.62107  0.00000
E11   E   0.09698  0.40954  0.13798
E12   E   0.09698  0.40954  0.86202
E13   E   0.09698  0.68744  0.36202
E14   E   0.09698  0.68744  0.63798
E15   E   0.16354  0.58177  0.25000
E16   E   0.16354  0.58177  0.75000
E17   E   0.23080  0.54133  0.08867
E18   E   0.23080  0.54133  0.91133
E19   E   0.23080  0.68947  0.41133
E20   E   0.23080  0.68947  0.58867
E21   E   0.31053  0.54133  0.41133
E22   E   0.31053  0.54133  0.58867
E23   E   0.31053  0.76920  0.08867
E24   E   0.31053  0.76920  0.91133
E25   E   0.31256  0.40954  0.36202
E26   E   0.31256  0.40954  0.63798
E27   E   0.31256  0.90302  0.13798
E28   E   0.31256  0.90302  0.86202
E29   E   0.35838  0.00000  0.25000
E30   E   0.35838  0.00000  0.75000
E31   E   0.35838  0.35838  0.25000
E32   E   0.35838  0.35838  0.75000
E33   E   0.37893  0.46159  0.00000
E34   E   0.37893  0.91734  0.50000
E35   E   0.40954  0.09698  0.36202
E36   E   0.40954  0.09698  0.63798
E37   E   0.40954  0.31256  0.13798
E38   E   0.40954  0.31256  0.86202
E39   E   0.41823  0.58177  0.25000
E40   E   0.41823  0.58177  0.75000
E41   E   0.41823  0.83646  0.25000
E42   E   0.41823  0.83646  0.75000
E43   E   0.45867  0.68947  0.08867
E44   E   0.45867  0.68947  0.91133
E45   E   0.45867  0.76920  0.41133
E46   E   0.45867  0.76920  0.58867
E47   E   0.46159  0.08266  0.00000
E48   E   0.46159  0.37893  0.50000
E49   E   0.50000  0.00000  0.18730
E50   E   0.50000  0.00000  0.31270
E51   E   0.50000  0.00000  0.68730
E52   E   0.50000  0.00000  0.81270
E53   E   0.50000  0.50000  0.18730
E54   E   0.50000  0.50000  0.31270
E55   E   0.50000  0.50000  0.68730
E56   E   0.50000  0.50000  0.81270
E57   E   0.53841  0.62107  0.50000
E58   E   0.53841  0.91734  0.00000
E59   E   0.54133  0.23080  0.41133
E60   E   0.54133  0.23080  0.58867
E61   E   0.54133  0.31053  0.08867
E62   E   0.54133  0.31053  0.91133
E63   E   0.58177  0.16354  0.25000
E64   E   0.58177  0.16354  0.75000
E65   E   0.58177  0.41823  0.25000
E66   E   0.58177  0.41823  0.75000
E67   E   0.59046  0.68744  0.13798
E68   E   0.59046  0.68744  0.86202
E69   E   0.59046  0.90302  0.36202
E70   E   0.59046  0.90302  0.63798
E71   E   0.62107  0.08266  0.50000
E72   E   0.62107  0.53841  0.00000
E73   E   0.64162  0.00000  0.25000
E74   E   0.64162  0.00000  0.75000
E75   E   0.64162  0.64162  0.25000
E76   E   0.64162  0.64162  0.75000
E77   E   0.68744  0.09698  0.13798
E78   E   0.68744  0.09698  0.86202
E79   E   0.68744  0.59046  0.36202
E80   E   0.68744  0.59046  0.63798
E81   E   0.68947  0.23080  0.08867
E82   E   0.68947  0.23080  0.91133
E83   E   0.68947  0.45867  0.41133
E84   E   0.68947  0.45867  0.58867
E85   E   0.76920  0.31053  0.41133
E86   E   0.76920  0.31053  0.58867
E87   E   0.76920  0.45867  0.08867
E88   E   0.76920  0.45867  0.91133
E89   E   0.83646  0.41823  0.25000
E90   E   0.83646  0.41823  0.75000
E91   E   0.90302  0.31256  0.36202
E92   E   0.90302  0.31256  0.63798
E93   E   0.90302  0.59046  0.13798
E94   E   0.90302  0.59046  0.86202
E95   E   0.91734  0.37893  0.00000
E96   E   0.91734  0.53841  0.50000
loop_
