data_tsx_I-42m  hall_number: 398, V_con: 6, EC_con: 3
_audit_creation_date              2025-03-05
_audit_creation_method            'MOFbuilder_1.0'
_symmetry_space_group_name_H-M    'P1'
_symmetry_Int_Tables_number       1
_symmetry_cell_setting            triclinic
loop_
_symmetry_equiv_pos_as_xyz
  x,y,z
_cell_length_a                    13.3278
_cell_length_b                    13.3278
_cell_length_c                    26.6887
_cell_angle_alpha                 90.0
_cell_angle_beta                  90.0
_cell_angle_gamma                 90.0
loop_
_atom_site_label
_atom_site_type_symbol
_atom_site_fract_x
_atom_site_fract_y
_atom_site_fract_z
V1    V   0.00000  0.00000  0.00000
V2    V   0.50000  0.50000  0.50000
EC1    EC   0.00000  0.00000  0.37469
EC2    EC   0.00000  0.00000  0.62531
EC3    EC   0.50000  0.50000  0.12531
EC4    EC   0.50000  0.50000  0.87469
E1    E   0.00000  0.00000  0.18734
E2    E   0.00000  0.00000  0.81266
E3    E   0.25000  0.25000  0.06266
E4    E   0.25000  0.25000  0.56266
E5    E   0.25000  0.75000  0.43734
E6    E   0.25000  0.75000  0.93734
E7    E   0.50000  0.50000  0.31266
E8    E   0.50000  0.50000  0.68734
E9    E   0.75000  0.25000  0.43734
E10   E   0.75000  0.25000  0.93734
E11   E   0.75000  0.75000  0.06266
E12   E   0.75000  0.75000  0.56266
loop_
