data_ttd_I4/mmm  hall_number: 424, V_con: 3, EC_con: 3
_audit_creation_date              2025-03-05
_audit_creation_method            'MOFbuilder_1.0'
_symmetry_space_group_name_H-M    'P1'
_symmetry_Int_Tables_number       1
_symmetry_cell_setting            triclinic
loop_
_symmetry_equiv_pos_as_xyz
  x,y,z
_cell_length_a                    60.8238
_cell_length_b                    60.8238
_cell_length_c                    39.686499999999995
_cell_angle_alpha                 90.0
_cell_angle_beta                  90.0
_cell_angle_gamma                 90.0
loop_
_atom_site_label
_atom_site_type_symbol
_atom_site_fract_x
_atom_site_fract_y
_atom_site_fract_z
V1    V   0.08221  0.21175  0.00000
V2    V   0.08221  0.78825  0.00000
V3    V   0.21175  0.08221  0.00000
V4    V   0.21175  0.91779  0.00000
V5    V   0.28825  0.41779  0.50000
V6    V   0.28825  0.58221  0.50000
V7    V   0.41779  0.28825  0.50000
V8    V   0.41779  0.71175  0.50000
V9    V   0.58221  0.28825  0.50000
V10   V   0.58221  0.71175  0.50000
V11   V   0.71175  0.41779  0.50000
V12   V   0.71175  0.58221  0.50000
V13   V   0.78825  0.08221  0.00000
V14   V   0.78825  0.91779  0.00000
V15   V   0.91779  0.21175  0.00000
V16   V   0.91779  0.78825  0.00000
EC1    EC   0.21058  0.21058  0.15742
EC2    EC   0.21058  0.21058  0.84258
EC3    EC   0.21058  0.78942  0.15742
EC4    EC   0.21058  0.78942  0.84258
EC5    EC   0.28942  0.28942  0.34258
EC6    EC   0.28942  0.28942  0.65742
EC7    EC   0.28942  0.71058  0.34258
EC8    EC   0.28942  0.71058  0.65742
EC9    EC   0.71058  0.28942  0.34258
EC10   EC   0.71058  0.28942  0.65742
EC11   EC   0.71058  0.71058  0.34258
EC12   EC   0.71058  0.71058  0.65742
EC13   EC   0.78942  0.21058  0.15742
EC14   EC   0.78942  0.21058  0.84258
EC15   EC   0.78942  0.78942  0.15742
EC16   EC   0.78942  0.78942  0.84258
E1    E   0.00000  0.21175  0.00000
E2    E   0.00000  0.78825  0.00000
E3    E   0.14639  0.21116  0.07871
E4    E   0.14639  0.21116  0.92129
E5    E   0.14639  0.78884  0.07871
E6    E   0.14639  0.78884  0.92129
E7    E   0.21116  0.14639  0.07871
E8    E   0.21116  0.14639  0.92129
E9    E   0.21116  0.85361  0.07871
E10   E   0.21116  0.85361  0.92129
E11   E   0.21175  0.00000  0.00000
E12   E   0.25000  0.25000  0.25000
E13   E   0.25000  0.25000  0.75000
E14   E   0.25000  0.75000  0.25000
E15   E   0.25000  0.75000  0.75000
E16   E   0.28825  0.50000  0.50000
E17   E   0.28884  0.35361  0.42129
E18   E   0.28884  0.35361  0.57871
E19   E   0.28884  0.64639  0.42129
E20   E   0.28884  0.64639  0.57871
E21   E   0.35361  0.28884  0.42129
E22   E   0.35361  0.28884  0.57871
E23   E   0.35361  0.71116  0.42129
E24   E   0.35361  0.71116  0.57871
E25   E   0.50000  0.28825  0.50000
E26   E   0.50000  0.71175  0.50000
E27   E   0.64639  0.28884  0.42129
E28   E   0.64639  0.28884  0.57871
E29   E   0.64639  0.71116  0.42129
E30   E   0.64639  0.71116  0.57871
E31   E   0.71116  0.35361  0.42129
E32   E   0.71116  0.35361  0.57871
E33   E   0.71116  0.64639  0.42129
E34   E   0.71116  0.64639  0.57871
E35   E   0.71175  0.50000  0.50000
E36   E   0.75000  0.25000  0.25000
E37   E   0.75000  0.25000  0.75000
E38   E   0.75000  0.75000  0.25000
E39   E   0.75000  0.75000  0.75000
E40   E   0.78825  0.00000  0.00000
E41   E   0.78884  0.14639  0.07871
E42   E   0.78884  0.14639  0.92129
E43   E   0.78884  0.85361  0.07871
E44   E   0.78884  0.85361  0.92129
E45   E   0.85361  0.21116  0.07871
E46   E   0.85361  0.21116  0.92129
E47   E   0.85361  0.78884  0.07871
E48   E   0.85361  0.78884  0.92129
loop_
