data_ttt-a_F-43m  hall_number: 512, V_con: 4, EC_con: 3
_audit_creation_date              2025-03-05
_audit_creation_method            'MOFbuilder_1.0'
_symmetry_space_group_name_H-M    'P1'
_symmetry_Int_Tables_number       1
_symmetry_cell_setting            triclinic
loop_
_symmetry_equiv_pos_as_xyz
  x,y,z
_cell_length_a                    66.9212
_cell_length_b                    66.9212
_cell_length_c                    66.9212
_cell_angle_alpha                 90.0
_cell_angle_beta                  90.0
_cell_angle_gamma                 90.0
loop_
_atom_site_label
_atom_site_type_symbol
_atom_site_fract_x
_atom_site_fract_y
_atom_site_fract_z
V1    V   0.09151  0.19717  0.30283
V2    V   0.09151  0.30283  0.19717
V3    V   0.09151  0.69717  0.80283
V4    V   0.09151  0.80283  0.69717
V5    V   0.19717  0.09151  0.30283
V6    V   0.19717  0.19717  0.40849
V7    V   0.19717  0.30283  0.09151
V8    V   0.19717  0.40849  0.19717
V9    V   0.19717  0.59151  0.80283
V10   V   0.19717  0.69717  0.90849
V11   V   0.19717  0.80283  0.59151
V12   V   0.19717  0.90849  0.69717
V13   V   0.30283  0.09151  0.19717
V14   V   0.30283  0.19717  0.09151
V15   V   0.30283  0.30283  0.40849
V16   V   0.30283  0.40849  0.30283
V17   V   0.30283  0.59151  0.69717
V18   V   0.30283  0.69717  0.59151
V19   V   0.30283  0.80283  0.90849
V20   V   0.30283  0.90849  0.80283
V21   V   0.40849  0.19717  0.19717
V22   V   0.40849  0.30283  0.30283
V23   V   0.40849  0.69717  0.69717
V24   V   0.40849  0.80283  0.80283
V25   V   0.59151  0.19717  0.80283
V26   V   0.59151  0.30283  0.69717
V27   V   0.59151  0.69717  0.30283
V28   V   0.59151  0.80283  0.19717
V29   V   0.69717  0.09151  0.80283
V30   V   0.69717  0.19717  0.90849
V31   V   0.69717  0.30283  0.59151
V32   V   0.69717  0.40849  0.69717
V33   V   0.69717  0.59151  0.30283
V34   V   0.69717  0.69717  0.40849
V35   V   0.69717  0.80283  0.09151
V36   V   0.69717  0.90849  0.19717
V37   V   0.80283  0.09151  0.69717
V38   V   0.80283  0.19717  0.59151
V39   V   0.80283  0.30283  0.90849
V40   V   0.80283  0.40849  0.80283
V41   V   0.80283  0.59151  0.19717
V42   V   0.80283  0.69717  0.09151
V43   V   0.80283  0.80283  0.40849
V44   V   0.80283  0.90849  0.30283
V45   V   0.90849  0.19717  0.69717
V46   V   0.90849  0.30283  0.80283
V47   V   0.90849  0.69717  0.19717
V48   V   0.90849  0.80283  0.30283
EC1    EC   0.03063  0.13629  0.63629
EC2    EC   0.03063  0.36371  0.86371
EC3    EC   0.03063  0.63629  0.13629
EC4    EC   0.03063  0.86371  0.36371
EC5    EC   0.13629  0.03063  0.63629
EC6    EC   0.13629  0.13629  0.53063
EC7    EC   0.13629  0.36371  0.96937
EC8    EC   0.13629  0.46937  0.86371
EC9    EC   0.13629  0.53063  0.13629
EC10   EC   0.13629  0.63629  0.03063
EC11   EC   0.13629  0.86371  0.46937
EC12   EC   0.13629  0.96937  0.36371
EC13   EC   0.36371  0.03063  0.86371
EC14   EC   0.36371  0.13629  0.96937
EC15   EC   0.36371  0.36371  0.53063
EC16   EC   0.36371  0.46937  0.63629
EC17   EC   0.36371  0.53063  0.36371
EC18   EC   0.36371  0.63629  0.46937
EC19   EC   0.36371  0.86371  0.03063
EC20   EC   0.36371  0.96937  0.13629
EC21   EC   0.46937  0.13629  0.86371
EC22   EC   0.46937  0.36371  0.63629
EC23   EC   0.46937  0.63629  0.36371
EC24   EC   0.46937  0.86371  0.13629
EC25   EC   0.53063  0.13629  0.13629
EC26   EC   0.53063  0.36371  0.36371
EC27   EC   0.53063  0.63629  0.63629
EC28   EC   0.53063  0.86371  0.86371
EC29   EC   0.63629  0.03063  0.13629
EC30   EC   0.63629  0.13629  0.03063
EC31   EC   0.63629  0.36371  0.46937
EC32   EC   0.63629  0.46937  0.36371
EC33   EC   0.63629  0.53063  0.63629
EC34   EC   0.63629  0.63629  0.53063
EC35   EC   0.63629  0.86371  0.96937
EC36   EC   0.63629  0.96937  0.86371
EC37   EC   0.86371  0.03063  0.36371
EC38   EC   0.86371  0.13629  0.46937
EC39   EC   0.86371  0.36371  0.03063
EC40   EC   0.86371  0.46937  0.13629
EC41   EC   0.86371  0.53063  0.86371
EC42   EC   0.86371  0.63629  0.96937
EC43   EC   0.86371  0.86371  0.53063
EC44   EC   0.86371  0.96937  0.63629
EC45   EC   0.96937  0.13629  0.36371
EC46   EC   0.96937  0.36371  0.13629
EC47   EC   0.96937  0.63629  0.86371
EC48   EC   0.96937  0.86371  0.63629
E1    E   0.03044  0.16673  0.33327
E2    E   0.03044  0.33327  0.16673
E3    E   0.03044  0.66673  0.83327
E4    E   0.03044  0.83327  0.66673
E5    E   0.08346  0.08346  0.63629
E6    E   0.08346  0.13629  0.58346
E7    E   0.08346  0.36371  0.91654
E8    E   0.08346  0.41654  0.86371
E9    E   0.08346  0.58346  0.13629
E10   E   0.08346  0.63629  0.08346
E11   E   0.08346  0.86371  0.41654
E12   E   0.08346  0.91654  0.36371
E13   E   0.08346  0.08346  0.63629
E14   E   0.08346  0.13629  0.58346
E15   E   0.08346  0.36371  0.91654
E16   E   0.08346  0.41654  0.86371
E17   E   0.08346  0.58346  0.13629
E18   E   0.08346  0.63629  0.08346
E19   E   0.08346  0.86371  0.41654
E20   E   0.08346  0.91654  0.36371
E21   E   0.09151  0.25000  0.25000
E22   E   0.09151  0.75000  0.75000
E23   E   0.13629  0.08346  0.58346
E24   E   0.13629  0.08346  0.58346
E25   E   0.13629  0.41654  0.91654
E26   E   0.13629  0.58346  0.08346
E27   E   0.13629  0.58346  0.08346
E28   E   0.13629  0.91654  0.41654
E29   E   0.14434  0.14434  0.30283
E30   E   0.14434  0.19717  0.35566
E31   E   0.14434  0.30283  0.14434
E32   E   0.14434  0.35566  0.19717
E33   E   0.14434  0.64434  0.80283
E34   E   0.14434  0.69717  0.85566
E35   E   0.14434  0.80283  0.64434
E36   E   0.14434  0.85566  0.69717
E37   E   0.16673  0.03044  0.33327
E38   E   0.16673  0.16673  0.46956
E39   E   0.16673  0.33327  0.03044
E40   E   0.16673  0.46956  0.16673
E41   E   0.16673  0.53044  0.83327
E42   E   0.16673  0.66673  0.96956
E43   E   0.16673  0.83327  0.53044
E44   E   0.16673  0.96956  0.66673
E45   E   0.19717  0.14434  0.35566
E46   E   0.19717  0.35566  0.14434
E47   E   0.19717  0.64434  0.85566
E48   E   0.19717  0.85566  0.64434
E49   E   0.25000  0.09151  0.25000
E50   E   0.25000  0.25000  0.09151
E51   E   0.25000  0.25000  0.40849
E52   E   0.25000  0.40849  0.25000
E53   E   0.25000  0.59151  0.75000
E54   E   0.25000  0.75000  0.59151
E55   E   0.25000  0.75000  0.90849
E56   E   0.25000  0.90849  0.75000
E57   E   0.30283  0.14434  0.14434
E58   E   0.30283  0.35566  0.35566
E59   E   0.30283  0.64434  0.64434
E60   E   0.30283  0.85566  0.85566
E61   E   0.33327  0.03044  0.16673
E62   E   0.33327  0.16673  0.03044
E63   E   0.33327  0.33327  0.46956
E64   E   0.33327  0.46956  0.33327
E65   E   0.33327  0.53044  0.66673
E66   E   0.33327  0.66673  0.53044
E67   E   0.33327  0.83327  0.96956
E68   E   0.33327  0.96956  0.83327
E69   E   0.35566  0.14434  0.19717
E70   E   0.35566  0.19717  0.14434
E71   E   0.35566  0.30283  0.35566
E72   E   0.35566  0.35566  0.30283
E73   E   0.35566  0.64434  0.69717
E74   E   0.35566  0.69717  0.64434
E75   E   0.35566  0.80283  0.85566
E76   E   0.35566  0.85566  0.80283
E77   E   0.36371  0.08346  0.91654
E78   E   0.36371  0.08346  0.91654
E79   E   0.36371  0.41654  0.58346
E80   E   0.36371  0.58346  0.41654
E81   E   0.36371  0.91654  0.08346
E82   E   0.36371  0.91654  0.08346
E83   E   0.40849  0.25000  0.25000
E84   E   0.40849  0.75000  0.75000
E85   E   0.41654  0.08346  0.86371
E86   E   0.41654  0.08346  0.86371
E87   E   0.41654  0.13629  0.91654
E88   E   0.41654  0.36371  0.58346
E89   E   0.41654  0.41654  0.63629
E90   E   0.41654  0.58346  0.36371
E91   E   0.41654  0.63629  0.41654
E92   E   0.41654  0.86371  0.08346
E93   E   0.41654  0.86371  0.08346
E94   E   0.41654  0.91654  0.13629
E95   E   0.46956  0.16673  0.16673
E96   E   0.46956  0.33327  0.33327
E97   E   0.46956  0.66673  0.66673
E98   E   0.46956  0.83327  0.83327
E99   E   0.53044  0.16673  0.83327
E100  E   0.53044  0.33327  0.66673
E101  E   0.53044  0.66673  0.33327
E102  E   0.53044  0.83327  0.16673
E103  E   0.58346  0.08346  0.13629
E104  E   0.58346  0.08346  0.13629
E105  E   0.58346  0.13629  0.08346
E106  E   0.58346  0.13629  0.08346
E107  E   0.58346  0.36371  0.41654
E108  E   0.58346  0.41654  0.36371
E109  E   0.58346  0.58346  0.63629
E110  E   0.58346  0.63629  0.58346
E111  E   0.58346  0.86371  0.91654
E112  E   0.58346  0.91654  0.86371
E113  E   0.59151  0.25000  0.75000
E114  E   0.59151  0.75000  0.25000
E115  E   0.63629  0.08346  0.08346
E116  E   0.63629  0.08346  0.08346
E117  E   0.63629  0.41654  0.41654
E118  E   0.63629  0.58346  0.58346
E119  E   0.63629  0.91654  0.91654
E120  E   0.64434  0.14434  0.80283
E121  E   0.64434  0.19717  0.85566
E122  E   0.64434  0.30283  0.64434
E123  E   0.64434  0.35566  0.69717
E124  E   0.64434  0.64434  0.30283
E125  E   0.64434  0.69717  0.35566
E126  E   0.64434  0.80283  0.14434
E127  E   0.64434  0.85566  0.19717
E128  E   0.66673  0.03044  0.83327
E129  E   0.66673  0.16673  0.96956
E130  E   0.66673  0.33327  0.53044
E131  E   0.66673  0.46956  0.66673
E132  E   0.66673  0.53044  0.33327
E133  E   0.66673  0.66673  0.46956
E134  E   0.66673  0.83327  0.03044
E135  E   0.66673  0.96956  0.16673
E136  E   0.69717  0.14434  0.85566
E137  E   0.69717  0.35566  0.64434
E138  E   0.69717  0.64434  0.35566
E139  E   0.69717  0.85566  0.14434
E140  E   0.75000  0.09151  0.75000
E141  E   0.75000  0.25000  0.59151
E142  E   0.75000  0.25000  0.90849
E143  E   0.75000  0.40849  0.75000
E144  E   0.75000  0.59151  0.25000
E145  E   0.75000  0.75000  0.09151
E146  E   0.75000  0.75000  0.40849
E147  E   0.75000  0.90849  0.25000
E148  E   0.80283  0.14434  0.64434
E149  E   0.80283  0.35566  0.85566
E150  E   0.80283  0.64434  0.14434
E151  E   0.80283  0.85566  0.35566
E152  E   0.83327  0.03044  0.66673
E153  E   0.83327  0.16673  0.53044
E154  E   0.83327  0.33327  0.96956
E155  E   0.83327  0.46956  0.83327
E156  E   0.83327  0.53044  0.16673
E157  E   0.83327  0.66673  0.03044
E158  E   0.83327  0.83327  0.46956
E159  E   0.83327  0.96956  0.33327
E160  E   0.85566  0.14434  0.69717
E161  E   0.85566  0.19717  0.64434
E162  E   0.85566  0.30283  0.85566
E163  E   0.85566  0.35566  0.80283
E164  E   0.85566  0.64434  0.19717
E165  E   0.85566  0.69717  0.14434
E166  E   0.85566  0.80283  0.35566
E167  E   0.85566  0.85566  0.30283
E168  E   0.86371  0.08346  0.41654
E169  E   0.86371  0.08346  0.41654
E170  E   0.86371  0.41654  0.08346
E171  E   0.86371  0.41654  0.08346
E172  E   0.86371  0.58346  0.91654
E173  E   0.86371  0.91654  0.58346
E174  E   0.90849  0.25000  0.75000
E175  E   0.90849  0.75000  0.25000
E176  E   0.91654  0.08346  0.36371
E177  E   0.91654  0.08346  0.36371
E178  E   0.91654  0.13629  0.41654
E179  E   0.91654  0.36371  0.08346
E180  E   0.91654  0.36371  0.08346
E181  E   0.91654  0.41654  0.13629
E182  E   0.91654  0.58346  0.86371
E183  E   0.91654  0.63629  0.91654
E184  E   0.91654  0.86371  0.58346
E185  E   0.91654  0.91654  0.63629
E186  E   0.96956  0.16673  0.66673
E187  E   0.96956  0.33327  0.83327
E188  E   0.96956  0.66673  0.16673
E189  E   0.96956  0.83327  0.33327
loop_
