data_twf-e_Im-3m  hall_number: 529, V_con: 6
_audit_creation_date              2025-03-05
_audit_creation_method            'MOFbuilder_1.0'
_symmetry_space_group_name_H-M    'P1'
_symmetry_Int_Tables_number       1
_symmetry_cell_setting            triclinic
loop_
_symmetry_equiv_pos_as_xyz
  x,y,z
_cell_length_a                    39.4283
_cell_length_b                    39.4283
_cell_length_c                    39.4283
_cell_angle_alpha                 90.0
_cell_angle_beta                  90.0
_cell_angle_gamma                 90.0
loop_
_atom_site_label
_atom_site_type_symbol
_atom_site_fract_x
_atom_site_fract_y
_atom_site_fract_z
V1    V   0.00000  0.17664  0.36352
V2    V   0.00000  0.17664  0.63648
V3    V   0.00000  0.36352  0.17664
V4    V   0.00000  0.36352  0.82336
V5    V   0.00000  0.63648  0.17664
V6    V   0.00000  0.63648  0.82336
V7    V   0.00000  0.82336  0.36352
V8    V   0.00000  0.82336  0.63648
V9    V   0.13648  0.32336  0.50000
V10   V   0.13648  0.50000  0.32336
V11   V   0.13648  0.50000  0.67664
V12   V   0.13648  0.67664  0.50000
V13   V   0.17664  0.00000  0.36352
V14   V   0.17664  0.00000  0.63648
V15   V   0.17664  0.36352  0.00000
V16   V   0.17664  0.63648  0.00000
V17   V   0.32336  0.13648  0.50000
V18   V   0.32336  0.50000  0.13648
V19   V   0.32336  0.50000  0.86352
V20   V   0.32336  0.86352  0.50000
V21   V   0.36352  0.00000  0.17664
V22   V   0.36352  0.00000  0.82336
V23   V   0.36352  0.17664  0.00000
V24   V   0.36352  0.82336  0.00000
V25   V   0.50000  0.13648  0.32336
V26   V   0.50000  0.13648  0.67664
V27   V   0.50000  0.32336  0.13648
V28   V   0.50000  0.32336  0.86352
V29   V   0.50000  0.67664  0.13648
V30   V   0.50000  0.67664  0.86352
V31   V   0.50000  0.86352  0.32336
V32   V   0.50000  0.86352  0.67664
V33   V   0.63648  0.00000  0.17664
V34   V   0.63648  0.00000  0.82336
V35   V   0.63648  0.17664  0.00000
V36   V   0.63648  0.82336  0.00000
V37   V   0.67664  0.13648  0.50000
V38   V   0.67664  0.50000  0.13648
V39   V   0.67664  0.50000  0.86352
V40   V   0.67664  0.86352  0.50000
V41   V   0.82336  0.00000  0.36352
V42   V   0.82336  0.00000  0.63648
V43   V   0.82336  0.36352  0.00000
V44   V   0.82336  0.63648  0.00000
V45   V   0.86352  0.32336  0.50000
V46   V   0.86352  0.50000  0.32336
V47   V   0.86352  0.50000  0.67664
V48   V   0.86352  0.67664  0.50000
E1    E   0.00000  0.17664  0.50000
E2    E   0.00000  0.27008  0.27008
E3    E   0.00000  0.27008  0.72992
E4    E   0.00000  0.32336  0.50000
E5    E   0.00000  0.50000  0.17664
E6    E   0.00000  0.50000  0.32336
E7    E   0.00000  0.50000  0.67664
E8    E   0.00000  0.50000  0.82336
E9    E   0.00000  0.67664  0.50000
E10   E   0.00000  0.72992  0.27008
E11   E   0.00000  0.72992  0.72992
E12   E   0.00000  0.82336  0.50000
E13   E   0.06824  0.25000  0.43176
E14   E   0.06824  0.25000  0.56824
E15   E   0.06824  0.43176  0.25000
E16   E   0.06824  0.43176  0.75000
E17   E   0.06824  0.56824  0.25000
E18   E   0.06824  0.56824  0.75000
E19   E   0.06824  0.75000  0.43176
E20   E   0.06824  0.75000  0.56824
E21   E   0.06824  0.25000  0.43176
E22   E   0.06824  0.25000  0.56824
E23   E   0.06824  0.43176  0.25000
E24   E   0.06824  0.43176  0.75000
E25   E   0.06824  0.56824  0.25000
E26   E   0.06824  0.56824  0.75000
E27   E   0.06824  0.75000  0.43176
E28   E   0.06824  0.75000  0.56824
E29   E   0.08832  0.08832  0.36352
E30   E   0.08832  0.08832  0.63648
E31   E   0.08832  0.36352  0.08832
E32   E   0.08832  0.36352  0.91168
E33   E   0.08832  0.63648  0.08832
E34   E   0.08832  0.63648  0.91168
E35   E   0.08832  0.91168  0.36352
E36   E   0.08832  0.91168  0.63648
E37   E   0.13648  0.41168  0.41168
E38   E   0.13648  0.41168  0.58832
E39   E   0.13648  0.58832  0.41168
E40   E   0.13648  0.58832  0.58832
E41   E   0.17664  0.00000  0.50000
E42   E   0.17664  0.50000  0.00000
E43   E   0.22992  0.22992  0.50000
E44   E   0.22992  0.50000  0.22992
E45   E   0.22992  0.50000  0.77008
E46   E   0.22992  0.77008  0.50000
E47   E   0.25000  0.06824  0.43176
E48   E   0.25000  0.06824  0.56824
E49   E   0.25000  0.06824  0.43176
E50   E   0.25000  0.06824  0.56824
E51   E   0.25000  0.43176  0.06824
E52   E   0.25000  0.43176  0.93176
E53   E   0.25000  0.43176  0.06824
E54   E   0.25000  0.43176  0.93176
E55   E   0.25000  0.56824  0.06824
E56   E   0.25000  0.56824  0.93176
E57   E   0.25000  0.56824  0.06824
E58   E   0.25000  0.56824  0.93176
E59   E   0.25000  0.93176  0.43176
E60   E   0.25000  0.93176  0.56824
E61   E   0.25000  0.93176  0.43176
E62   E   0.25000  0.93176  0.56824
E63   E   0.27008  0.00000  0.27008
E64   E   0.27008  0.00000  0.72992
E65   E   0.27008  0.27008  0.00000
E66   E   0.27008  0.72992  0.00000
E67   E   0.32336  0.00000  0.50000
E68   E   0.32336  0.50000  0.00000
E69   E   0.36352  0.08832  0.08832
E70   E   0.36352  0.08832  0.91168
E71   E   0.36352  0.91168  0.08832
E72   E   0.36352  0.91168  0.91168
E73   E   0.41168  0.13648  0.41168
E74   E   0.41168  0.13648  0.58832
E75   E   0.41168  0.41168  0.13648
E76   E   0.41168  0.41168  0.86352
E77   E   0.41168  0.58832  0.13648
E78   E   0.41168  0.58832  0.86352
E79   E   0.41168  0.86352  0.41168
E80   E   0.41168  0.86352  0.58832
E81   E   0.43176  0.06824  0.25000
E82   E   0.43176  0.06824  0.75000
E83   E   0.43176  0.25000  0.06824
E84   E   0.43176  0.25000  0.93176
E85   E   0.43176  0.75000  0.06824
E86   E   0.43176  0.75000  0.93176
E87   E   0.43176  0.93176  0.25000
E88   E   0.43176  0.93176  0.75000
E89   E   0.43176  0.06824  0.25000
E90   E   0.43176  0.06824  0.75000
E91   E   0.43176  0.25000  0.06824
E92   E   0.43176  0.25000  0.93176
E93   E   0.43176  0.75000  0.06824
E94   E   0.43176  0.75000  0.93176
E95   E   0.43176  0.93176  0.25000
E96   E   0.43176  0.93176  0.75000
E97   E   0.50000  0.00000  0.17664
E98   E   0.50000  0.00000  0.32336
E99   E   0.50000  0.00000  0.67664
E100  E   0.50000  0.00000  0.82336
E101  E   0.50000  0.17664  0.00000
E102  E   0.50000  0.22992  0.22992
E103  E   0.50000  0.22992  0.77008
E104  E   0.50000  0.32336  0.00000
E105  E   0.50000  0.67664  0.00000
E106  E   0.50000  0.77008  0.22992
E107  E   0.50000  0.77008  0.77008
E108  E   0.50000  0.82336  0.00000
E109  E   0.56824  0.06824  0.25000
E110  E   0.56824  0.06824  0.75000
E111  E   0.56824  0.25000  0.06824
E112  E   0.56824  0.25000  0.93176
E113  E   0.56824  0.75000  0.06824
E114  E   0.56824  0.75000  0.93176
E115  E   0.56824  0.93176  0.25000
E116  E   0.56824  0.93176  0.75000
E117  E   0.56824  0.06824  0.25000
E118  E   0.56824  0.06824  0.75000
E119  E   0.56824  0.25000  0.06824
E120  E   0.56824  0.25000  0.93176
E121  E   0.56824  0.75000  0.06824
E122  E   0.56824  0.75000  0.93176
E123  E   0.56824  0.93176  0.25000
E124  E   0.56824  0.93176  0.75000
E125  E   0.58832  0.13648  0.41168
E126  E   0.58832  0.13648  0.58832
E127  E   0.58832  0.41168  0.13648
E128  E   0.58832  0.41168  0.86352
E129  E   0.58832  0.58832  0.13648
E130  E   0.58832  0.58832  0.86352
E131  E   0.58832  0.86352  0.41168
E132  E   0.58832  0.86352  0.58832
E133  E   0.63648  0.08832  0.08832
E134  E   0.63648  0.08832  0.91168
E135  E   0.63648  0.91168  0.08832
E136  E   0.63648  0.91168  0.91168
E137  E   0.67664  0.00000  0.50000
E138  E   0.67664  0.50000  0.00000
E139  E   0.72992  0.00000  0.27008
E140  E   0.72992  0.00000  0.72992
E141  E   0.72992  0.27008  0.00000
E142  E   0.72992  0.72992  0.00000
E143  E   0.75000  0.06824  0.43176
E144  E   0.75000  0.06824  0.56824
E145  E   0.75000  0.06824  0.43176
E146  E   0.75000  0.06824  0.56824
E147  E   0.75000  0.43176  0.06824
E148  E   0.75000  0.43176  0.93176
E149  E   0.75000  0.43176  0.06824
E150  E   0.75000  0.43176  0.93176
E151  E   0.75000  0.56824  0.06824
E152  E   0.75000  0.56824  0.93176
E153  E   0.75000  0.56824  0.06824
E154  E   0.75000  0.56824  0.93176
E155  E   0.75000  0.93176  0.43176
E156  E   0.75000  0.93176  0.56824
E157  E   0.75000  0.93176  0.43176
E158  E   0.75000  0.93176  0.56824
E159  E   0.77008  0.22992  0.50000
E160  E   0.77008  0.50000  0.22992
E161  E   0.77008  0.50000  0.77008
E162  E   0.77008  0.77008  0.50000
E163  E   0.82336  0.00000  0.50000
E164  E   0.82336  0.50000  0.00000
E165  E   0.86352  0.41168  0.41168
E166  E   0.86352  0.41168  0.58832
E167  E   0.86352  0.58832  0.41168
E168  E   0.86352  0.58832  0.58832
E169  E   0.91168  0.08832  0.36352
E170  E   0.91168  0.08832  0.63648
E171  E   0.91168  0.36352  0.08832
E172  E   0.91168  0.36352  0.91168
E173  E   0.91168  0.63648  0.08832
E174  E   0.91168  0.63648  0.91168
E175  E   0.91168  0.91168  0.36352
E176  E   0.91168  0.91168  0.63648
E177  E   0.93176  0.25000  0.43176
E178  E   0.93176  0.25000  0.56824
E179  E   0.93176  0.43176  0.25000
E180  E   0.93176  0.43176  0.75000
E181  E   0.93176  0.56824  0.25000
E182  E   0.93176  0.56824  0.75000
E183  E   0.93176  0.75000  0.43176
E184  E   0.93176  0.75000  0.56824
E185  E   0.93176  0.25000  0.43176
E186  E   0.93176  0.25000  0.56824
E187  E   0.93176  0.43176  0.25000
E188  E   0.93176  0.43176  0.75000
E189  E   0.93176  0.56824  0.25000
E190  E   0.93176  0.56824  0.75000
E191  E   0.93176  0.75000  0.43176
E192  E   0.93176  0.75000  0.56824
loop_
