data_twt_P6222  hall_number: 474, V_con: 3
_audit_creation_date              2025-03-05
_audit_creation_method            'MOFbuilder_1.0'
_symmetry_space_group_name_H-M    'P1'
_symmetry_Int_Tables_number       1
_symmetry_cell_setting            triclinic
loop_
_symmetry_equiv_pos_as_xyz
  x,y,z
_cell_length_a                    24.751599999999996
_cell_length_b                    24.751599999999996
_cell_length_c                    20.257800000000003
_cell_angle_alpha                 90.0
_cell_angle_beta                  90.0
_cell_angle_gamma                 120.0
loop_
_atom_site_label
_atom_site_type_symbol
_atom_site_fract_x
_atom_site_fract_y
_atom_site_fract_z
V1    V   0.00000  0.29799  0.66667
V2    V   0.00000  0.70201  0.66667
V3    V   0.29799  0.00000  0.00000
V4    V   0.29799  0.29799  0.33333
V5    V   0.70201  0.00000  0.00000
V6    V   0.70201  0.70201  0.33333
E1    E   0.00000  0.50000  0.66667
E2    E   0.14899  0.29799  0.50000
E3    E   0.14899  0.85100  0.83333
E4    E   0.14900  0.29799  0.50000
E5    E   0.14900  0.85101  0.83334
E6    E   0.29799  0.14899  0.16666
E7    E   0.29799  0.14900  0.16667
E8    E   0.50000  0.00000  0.00000
E9    E   0.50000  0.50000  0.33333
E10   E   0.70201  0.85100  0.16667
E11   E   0.70201  0.85101  0.16666
E12   E   0.85100  0.14899  0.83334
E13   E   0.85100  0.70201  0.50000
E14   E   0.85101  0.14900  0.83333
E15   E   0.85101  0.70201  0.50000
loop_
