data_uka_I41/acd:2  hall_number: 429, V_con: 4
_audit_creation_date              2025-03-05
_audit_creation_method            'MOFbuilder_1.0'
_symmetry_space_group_name_H-M    'P1'
_symmetry_Int_Tables_number       1
_symmetry_cell_setting            triclinic
loop_
_symmetry_equiv_pos_as_xyz
  x,y,z
_cell_length_a                    40.87220000000001
_cell_length_b                    40.87220000000001
_cell_length_c                    28.642500000000002
_cell_angle_alpha                 90.0
_cell_angle_beta                  90.0
_cell_angle_gamma                 90.0
loop_
_atom_site_label
_atom_site_type_symbol
_atom_site_fract_x
_atom_site_fract_y
_atom_site_fract_z
V1    V   0.02686  0.11892  0.48566
V2    V   0.02686  0.38108  0.98566
V3    V   0.02686  0.61892  0.51434
V4    V   0.02686  0.88108  0.01434
V5    V   0.13108  0.22314  0.76434
V6    V   0.13108  0.27686  0.26434
V7    V   0.13108  0.72314  0.23566
V8    V   0.13108  0.77686  0.73566
V9    V   0.36892  0.22314  0.23566
V10   V   0.36892  0.27686  0.73566
V11   V   0.36892  0.72314  0.76434
V12   V   0.36892  0.77686  0.26434
V13   V   0.47314  0.11892  0.51434
V14   V   0.47314  0.38108  0.01434
V15   V   0.47314  0.61892  0.48566
V16   V   0.47314  0.88108  0.98566
V17   V   0.52686  0.11892  0.01434
V18   V   0.52686  0.38108  0.51434
V19   V   0.52686  0.61892  0.98566
V20   V   0.52686  0.88108  0.48566
V21   V   0.63108  0.22314  0.73566
V22   V   0.63108  0.27686  0.23566
V23   V   0.63108  0.72314  0.26434
V24   V   0.63108  0.77686  0.76434
V25   V   0.86892  0.22314  0.26434
V26   V   0.86892  0.27686  0.76434
V27   V   0.86892  0.72314  0.73566
V28   V   0.86892  0.77686  0.23566
V29   V   0.97314  0.11892  0.98566
V30   V   0.97314  0.38108  0.48566
V31   V   0.97314  0.61892  0.01434
V32   V   0.97314  0.88108  0.51434
E1    E   0.00000  0.00000  0.00000
E2    E   0.00000  0.00000  0.50000
E3    E   0.00000  0.50000  0.00000
E4    E   0.00000  0.50000  0.50000
E5    E   0.05211  0.17103  0.87500
E6    E   0.05211  0.32897  0.37500
E7    E   0.05211  0.67103  0.12500
E8    E   0.05211  0.82897  0.62500
E9    E   0.07897  0.17103  0.62500
E10   E   0.07897  0.32897  0.12500
E11   E   0.07897  0.67103  0.37500
E12   E   0.07897  0.82897  0.87500
E13   E   0.07897  0.17103  0.62500
E14   E   0.07897  0.19789  0.37500
E15   E   0.07897  0.30211  0.87500
E16   E   0.07897  0.32897  0.12500
E17   E   0.07897  0.67103  0.37500
E18   E   0.07897  0.69789  0.62500
E19   E   0.07897  0.80211  0.12500
E20   E   0.07897  0.82897  0.87500
E21   E   0.25000  0.25000  0.25000
E22   E   0.25000  0.25000  0.75000
E23   E   0.25000  0.75000  0.25000
E24   E   0.25000  0.75000  0.75000
E25   E   0.42103  0.17103  0.37500
E26   E   0.42103  0.19789  0.62500
E27   E   0.42103  0.30211  0.12500
E28   E   0.42103  0.32897  0.87500
E29   E   0.42103  0.67103  0.62500
E30   E   0.42103  0.69789  0.37500
E31   E   0.42103  0.80211  0.87500
E32   E   0.42103  0.82897  0.12500
E33   E   0.44789  0.17103  0.12500
E34   E   0.44789  0.32897  0.62500
E35   E   0.44789  0.67103  0.87500
E36   E   0.44789  0.82897  0.37500
E37   E   0.50000  0.00000  0.00000
E38   E   0.50000  0.00000  0.50000
E39   E   0.50000  0.50000  0.00000
E40   E   0.50000  0.50000  0.50000
E41   E   0.55211  0.17103  0.62500
E42   E   0.55211  0.32897  0.12500
E43   E   0.55211  0.67103  0.37500
E44   E   0.55211  0.82897  0.87500
E45   E   0.57897  0.17103  0.87500
E46   E   0.57897  0.19789  0.12500
E47   E   0.57897  0.30211  0.62500
E48   E   0.57897  0.32897  0.37500
E49   E   0.57897  0.67103  0.12500
E50   E   0.57897  0.69789  0.87500
E51   E   0.57897  0.80211  0.37500
E52   E   0.57897  0.82897  0.62500
E53   E   0.75000  0.25000  0.25000
E54   E   0.75000  0.25000  0.75000
E55   E   0.75000  0.75000  0.25000
E56   E   0.75000  0.75000  0.75000
E57   E   0.92103  0.17103  0.12500
E58   E   0.92103  0.19789  0.87500
E59   E   0.92103  0.30211  0.37500
E60   E   0.92103  0.32897  0.62500
E61   E   0.92103  0.67103  0.87500
E62   E   0.92103  0.69789  0.12500
E63   E   0.92103  0.80211  0.62500
E64   E   0.92103  0.82897  0.37500
E65   E   0.94789  0.17103  0.37500
E66   E   0.94789  0.32897  0.87500
E67   E   0.94789  0.67103  0.62500
E68   E   0.94789  0.82897  0.12500
loop_
