data_ukd_I41/acd:2  hall_number: 429, V_con: 4
_audit_creation_date              2025-03-05
_audit_creation_method            'MOFbuilder_1.0'
_symmetry_space_group_name_H-M    'P1'
_symmetry_Int_Tables_number       1
_symmetry_cell_setting            triclinic
loop_
_symmetry_equiv_pos_as_xyz
  x,y,z
_cell_length_a                    29.544800000000002
_cell_length_b                    29.544800000000002
_cell_length_c                    50.6583
_cell_angle_alpha                 90.0
_cell_angle_beta                  90.0
_cell_angle_gamma                 90.0
loop_
_atom_site_label
_atom_site_type_symbol
_atom_site_fract_x
_atom_site_fract_y
_atom_site_fract_z
V1    V   0.06534  0.03758  0.91163
V2    V   0.06534  0.46242  0.41163
V3    V   0.06534  0.53758  0.08837
V4    V   0.06534  0.96242  0.58837
V5    V   0.21242  0.18466  0.33837
V6    V   0.21242  0.31534  0.83837
V7    V   0.21242  0.68466  0.66163
V8    V   0.21242  0.81534  0.16163
V9    V   0.28758  0.18466  0.66163
V10   V   0.28758  0.31534  0.16163
V11   V   0.28758  0.68466  0.33837
V12   V   0.28758  0.81534  0.83837
V13   V   0.43466  0.03758  0.08837
V14   V   0.43466  0.46242  0.58837
V15   V   0.43466  0.53758  0.91163
V16   V   0.43466  0.96242  0.41163
V17   V   0.56534  0.03758  0.58837
V18   V   0.56534  0.46242  0.08837
V19   V   0.56534  0.53758  0.41163
V20   V   0.56534  0.96242  0.91163
V21   V   0.71242  0.18466  0.16163
V22   V   0.71242  0.31534  0.66163
V23   V   0.71242  0.68466  0.83837
V24   V   0.71242  0.81534  0.33837
V25   V   0.78758  0.18466  0.83837
V26   V   0.78758  0.31534  0.33837
V27   V   0.78758  0.68466  0.16163
V28   V   0.78758  0.81534  0.66163
V29   V   0.93466  0.03758  0.41163
V30   V   0.93466  0.46242  0.91163
V31   V   0.93466  0.53758  0.58837
V32   V   0.93466  0.96242  0.08837
E1    E   0.00000  0.00000  0.00000
E2    E   0.00000  0.00000  0.50000
E3    E   0.00000  0.50000  0.00000
E4    E   0.00000  0.50000  0.50000
E5    E   0.07354  0.11112  0.37500
E6    E   0.07354  0.38888  0.87500
E7    E   0.07354  0.61112  0.62500
E8    E   0.07354  0.88888  0.12500
E9    E   0.13888  0.17646  0.87500
E10   E   0.13888  0.32354  0.37500
E11   E   0.13888  0.67646  0.12500
E12   E   0.13888  0.82354  0.62500
E13   E   0.17646  0.07354  0.62500
E14   E   0.17646  0.07354  0.62500
E15   E   0.17646  0.42646  0.12500
E16   E   0.17646  0.57354  0.37500
E17   E   0.17646  0.92646  0.87500
E18   E   0.25000  0.25000  0.25000
E19   E   0.25000  0.25000  0.75000
E20   E   0.25000  0.75000  0.25000
E21   E   0.25000  0.75000  0.75000
E22   E   0.32354  0.07354  0.37500
E23   E   0.32354  0.07354  0.37500
E24   E   0.32354  0.42646  0.87500
E25   E   0.32354  0.57354  0.62500
E26   E   0.32354  0.92646  0.12500
E27   E   0.36112  0.17646  0.12500
E28   E   0.36112  0.32354  0.62500
E29   E   0.36112  0.67646  0.87500
E30   E   0.36112  0.82354  0.37500
E31   E   0.42646  0.11112  0.62500
E32   E   0.42646  0.38888  0.12500
E33   E   0.42646  0.61112  0.37500
E34   E   0.42646  0.88888  0.87500
E35   E   0.50000  0.00000  0.00000
E36   E   0.50000  0.00000  0.50000
E37   E   0.50000  0.50000  0.00000
E38   E   0.50000  0.50000  0.50000
E39   E   0.57354  0.11112  0.12500
E40   E   0.57354  0.38888  0.62500
E41   E   0.57354  0.61112  0.87500
E42   E   0.57354  0.88888  0.37500
E43   E   0.63888  0.17646  0.62500
E44   E   0.63888  0.32354  0.12500
E45   E   0.63888  0.67646  0.37500
E46   E   0.63888  0.82354  0.87500
E47   E   0.67646  0.07354  0.87500
E48   E   0.67646  0.07354  0.87500
E49   E   0.67646  0.42646  0.37500
E50   E   0.67646  0.57354  0.12500
E51   E   0.67646  0.92646  0.62500
E52   E   0.75000  0.25000  0.25000
E53   E   0.75000  0.25000  0.75000
E54   E   0.75000  0.75000  0.25000
E55   E   0.75000  0.75000  0.75000
E56   E   0.82354  0.07354  0.12500
E57   E   0.82354  0.07354  0.12500
E58   E   0.82354  0.42646  0.62500
E59   E   0.82354  0.57354  0.87500
E60   E   0.82354  0.92646  0.37500
E61   E   0.86112  0.17646  0.37500
E62   E   0.86112  0.32354  0.87500
E63   E   0.86112  0.67646  0.62500
E64   E   0.86112  0.82354  0.12500
E65   E   0.92646  0.11112  0.87500
E66   E   0.92646  0.38888  0.37500
E67   E   0.92646  0.61112  0.12500
E68   E   0.92646  0.88888  0.62500
loop_
