data_ukf_P6222  hall_number: 474, V_con: 4
_audit_creation_date              2025-03-05
_audit_creation_method            'MOFbuilder_1.0'
_symmetry_space_group_name_H-M    'P1'
_symmetry_Int_Tables_number       1
_symmetry_cell_setting            triclinic
loop_
_symmetry_equiv_pos_as_xyz
  x,y,z
_cell_length_a                    21.189700000000002
_cell_length_b                    21.189700000000002
_cell_length_c                    45.3276
_cell_angle_alpha                 90.0
_cell_angle_beta                  90.0
_cell_angle_gamma                 120.0
loop_
_atom_site_label
_atom_site_type_symbol
_atom_site_fract_x
_atom_site_fract_y
_atom_site_fract_z
V1    V   0.18140  0.41463  0.39036
V2    V   0.18140  0.76677  0.94297
V3    V   0.23323  0.41463  0.60964
V4    V   0.23323  0.81860  0.72370
V5    V   0.41463  0.18140  0.27630
V6    V   0.41463  0.23323  0.05703
V7    V   0.58537  0.76677  0.05703
V8    V   0.58537  0.81860  0.27630
V9    V   0.76677  0.18140  0.72370
V10   V   0.76677  0.58537  0.60964
V11   V   0.81860  0.23323  0.94297
V12   V   0.81860  0.58537  0.39036
E1    E   0.00000  0.29802  0.66667
E2    E   0.00000  0.50000  0.39036
E3    E   0.00000  0.50000  0.94297
E4    E   0.00000  0.70198  0.66667
E5    E   0.20731  0.41463  0.50000
E6    E   0.20731  0.79268  0.83333
E7    E   0.20732  0.41463  0.50000
E8    E   0.20732  0.79269  0.83334
E9    E   0.23323  0.61661  0.66667
E10   E   0.23323  0.61662  0.66667
E11   E   0.29802  0.00000  0.00000
E12   E   0.29802  0.29802  0.33333
E13   E   0.38338  0.61661  0.33333
E14   E   0.38338  0.76677  0.00000
E15   E   0.38339  0.61662  0.33333
E16   E   0.38339  0.76677  0.00000
E17   E   0.41463  0.20731  0.16666
E18   E   0.41463  0.20732  0.16667
E19   E   0.50000  0.00000  0.27630
E20   E   0.50000  0.00000  0.72370
E21   E   0.50000  0.50000  0.05703
E22   E   0.50000  0.50000  0.60964
E23   E   0.58537  0.79268  0.16667
E24   E   0.58537  0.79269  0.16666
E25   E   0.61661  0.23323  0.00000
E26   E   0.61661  0.38338  0.33333
E27   E   0.61662  0.23323  0.00000
E28   E   0.61662  0.38339  0.33333
E29   E   0.70198  0.00000  0.00000
E30   E   0.70198  0.70198  0.33333
E31   E   0.76677  0.38338  0.66667
E32   E   0.76677  0.38339  0.66667
E33   E   0.79268  0.20731  0.83334
E34   E   0.79268  0.58537  0.50000
E35   E   0.79269  0.20732  0.83333
E36   E   0.79269  0.58537  0.50000
loop_
