data_ukg_P42/n:2  hall_number: 362, V_con: 4
_audit_creation_date              2025-03-05
_audit_creation_method            'MOFbuilder_1.0'
_symmetry_space_group_name_H-M    'P1'
_symmetry_Int_Tables_number       1
_symmetry_cell_setting            triclinic
loop_
_symmetry_equiv_pos_as_xyz
  x,y,z
_cell_length_a                    20.0214
_cell_length_b                    20.0214
_cell_length_c                    27.400199999999998
_cell_angle_alpha                 90.0
_cell_angle_beta                  90.0
_cell_angle_gamma                 90.0
loop_
_atom_site_label
_atom_site_type_symbol
_atom_site_fract_x
_atom_site_fract_y
_atom_site_fract_z
V1    V   0.02030  0.65201  0.14402
V2    V   0.15201  0.97970  0.64402
V3    V   0.34799  0.52030  0.64402
V4    V   0.47970  0.84799  0.14402
V5    V   0.52030  0.15201  0.85598
V6    V   0.65201  0.47970  0.35598
V7    V   0.84799  0.02030  0.35598
V8    V   0.97970  0.34799  0.85598
E1    E   0.00000  0.00000  0.50000
E2    E   0.00000  0.50000  0.00000
E3    E   0.06586  0.16385  0.75000
E4    E   0.16385  0.43414  0.75000
E5    E   0.25000  0.75000  0.14402
E6    E   0.25000  0.75000  0.64402
E7    E   0.33615  0.06586  0.75000
E8    E   0.43414  0.33615  0.75000
E9    E   0.50000  0.00000  0.00000
E10   E   0.50000  0.50000  0.50000
E11   E   0.56586  0.66385  0.25000
E12   E   0.66385  0.93414  0.25000
E13   E   0.75000  0.25000  0.35598
E14   E   0.75000  0.25000  0.85598
E15   E   0.83615  0.56586  0.25000
E16   E   0.93414  0.83615  0.25000
loop_
