data_ukh_P6222  hall_number: 474, V_con: 4
_audit_creation_date              2025-03-05
_audit_creation_method            'MOFbuilder_1.0'
_symmetry_space_group_name_H-M    'P1'
_symmetry_Int_Tables_number       1
_symmetry_cell_setting            triclinic
loop_
_symmetry_equiv_pos_as_xyz
  x,y,z
_cell_length_a                    21.1347
_cell_length_b                    21.1347
_cell_length_c                    44.2316
_cell_angle_alpha                 90.0
_cell_angle_beta                  90.0
_cell_angle_gamma                 120.0
loop_
_atom_site_label
_atom_site_type_symbol
_atom_site_fract_x
_atom_site_fract_y
_atom_site_fract_z
V1    V   0.08516  0.31779  0.39259
V2    V   0.08516  0.76737  0.94074
V3    V   0.23263  0.31779  0.60741
V4    V   0.23263  0.91484  0.72593
V5    V   0.31779  0.08516  0.27407
V6    V   0.31779  0.23263  0.05926
V7    V   0.68221  0.76737  0.05926
V8    V   0.68221  0.91484  0.27407
V9    V   0.76737  0.08516  0.72593
V10   V   0.76737  0.68221  0.60741
V11   V   0.91484  0.23263  0.94074
V12   V   0.91484  0.68221  0.39259
E1    E   0.00000  0.20147  0.66667
E2    E   0.00000  0.50000  0.39259
E3    E   0.00000  0.50000  0.94074
E4    E   0.00000  0.79853  0.66667
E5    E   0.11631  0.23263  0.00000
E6    E   0.11631  0.88368  0.33333
E7    E   0.11632  0.23263  0.00000
E8    E   0.11632  0.88369  0.33333
E9    E   0.15889  0.31779  0.50000
E10   E   0.15889  0.84110  0.83334
E11   E   0.15890  0.31779  0.50000
E12   E   0.15890  0.84111  0.83333
E13   E   0.20147  0.00000  0.00000
E14   E   0.20147  0.20147  0.33333
E15   E   0.23263  0.11631  0.66667
E16   E   0.23263  0.11632  0.66667
E17   E   0.31779  0.15889  0.16667
E18   E   0.31779  0.15890  0.16666
E19   E   0.50000  0.00000  0.27407
E20   E   0.50000  0.00000  0.72593
E21   E   0.50000  0.50000  0.05926
E22   E   0.50000  0.50000  0.60741
E23   E   0.68221  0.84110  0.16666
E24   E   0.68221  0.84111  0.16667
E25   E   0.76737  0.88368  0.66667
E26   E   0.76737  0.88369  0.66667
E27   E   0.79853  0.00000  0.00000
E28   E   0.79853  0.79853  0.33333
E29   E   0.84110  0.15889  0.83333
E30   E   0.84110  0.68221  0.50000
E31   E   0.84111  0.15890  0.83334
E32   E   0.84111  0.68221  0.50000
E33   E   0.88368  0.11631  0.33333
E34   E   0.88368  0.76737  0.00000
E35   E   0.88369  0.11632  0.33333
E36   E   0.88369  0.76737  0.00000
loop_
