data_ukk_I-42d  hall_number: 399, V_con: 4
_audit_creation_date              2025-03-05
_audit_creation_method            'MOFbuilder_1.0'
_symmetry_space_group_name_H-M    'P1'
_symmetry_Int_Tables_number       1
_symmetry_cell_setting            triclinic
loop_
_symmetry_equiv_pos_as_xyz
  x,y,z
_cell_length_a                    33.2706
_cell_length_b                    33.2706
_cell_length_c                    16.9858
_cell_angle_alpha                 90.0
_cell_angle_beta                  90.0
_cell_angle_gamma                 90.0
loop_
_atom_site_label
_atom_site_type_symbol
_atom_site_fract_x
_atom_site_fract_y
_atom_site_fract_z
V1    V   0.10051  0.65006  0.90517
V2    V   0.10051  0.84994  0.34483
V3    V   0.15006  0.10051  0.65517
V4    V   0.15006  0.39949  0.59483
V5    V   0.34994  0.10051  0.09483
V6    V   0.34994  0.39949  0.15517
V7    V   0.39949  0.65006  0.84483
V8    V   0.39949  0.84994  0.40517
V9    V   0.60051  0.15006  0.40517
V10   V   0.60051  0.34994  0.84483
V11   V   0.65006  0.60051  0.15517
V12   V   0.65006  0.89949  0.09483
V13   V   0.84994  0.60051  0.59483
V14   V   0.84994  0.89949  0.65517
V15   V   0.89949  0.15006  0.34483
V16   V   0.89949  0.34994  0.90517
E1    E   0.02477  0.12528  0.50000
E2    E   0.02477  0.37472  0.75000
E3    E   0.10051  0.75000  0.12500
E4    E   0.12528  0.52477  0.75000
E5    E   0.12528  0.97523  0.50000
E6    E   0.15006  0.25000  0.62500
E7    E   0.25000  0.10051  0.87500
E8    E   0.25000  0.39949  0.37500
E9    E   0.25000  0.65006  0.87500
E10   E   0.25000  0.84994  0.37500
E11   E   0.34994  0.25000  0.12500
E12   E   0.37472  0.52477  0.00000
E13   E   0.37472  0.97523  0.25000
E14   E   0.39949  0.75000  0.62500
E15   E   0.47523  0.12528  0.25000
E16   E   0.47523  0.37472  0.00000
E17   E   0.52477  0.62528  0.00000
E18   E   0.52477  0.87472  0.25000
E19   E   0.60051  0.25000  0.62500
E20   E   0.62528  0.02477  0.25000
E21   E   0.62528  0.47523  0.00000
E22   E   0.65006  0.75000  0.12500
E23   E   0.75000  0.15006  0.37500
E24   E   0.75000  0.34994  0.87500
E25   E   0.75000  0.60051  0.37500
E26   E   0.75000  0.89949  0.87500
E27   E   0.84994  0.75000  0.62500
E28   E   0.87472  0.02477  0.50000
E29   E   0.87472  0.47523  0.75000
E30   E   0.89949  0.25000  0.12500
E31   E   0.97523  0.62528  0.75000
E32   E   0.97523  0.87472  0.50000
loop_
