data_ukr_Pm-3n  hall_number: 520, V_con: 4
_audit_creation_date              2025-03-05
_audit_creation_method            'MOFbuilder_1.0'
_symmetry_space_group_name_H-M    'P1'
_symmetry_Int_Tables_number       1
_symmetry_cell_setting            triclinic
loop_
_symmetry_equiv_pos_as_xyz
  x,y,z
_cell_length_a                    49.2435
_cell_length_b                    49.2435
_cell_length_c                    49.2435
_cell_angle_alpha                 90.0
_cell_angle_beta                  90.0
_cell_angle_gamma                 90.0
loop_
_atom_site_label
_atom_site_type_symbol
_atom_site_fract_x
_atom_site_fract_y
_atom_site_fract_z
V1    V   0.10154  0.26042  0.22204
V2    V   0.10154  0.26042  0.77796
V3    V   0.10154  0.73958  0.22204
V4    V   0.10154  0.73958  0.77796
V5    V   0.22204  0.10154  0.26042
V6    V   0.22204  0.10154  0.73958
V7    V   0.22204  0.89846  0.26042
V8    V   0.22204  0.89846  0.73958
V9    V   0.23958  0.39846  0.27796
V10   V   0.23958  0.39846  0.72204
V11   V   0.23958  0.60154  0.27796
V12   V   0.23958  0.60154  0.72204
V13   V   0.26042  0.22204  0.10154
V14   V   0.26042  0.22204  0.89846
V15   V   0.26042  0.77796  0.10154
V16   V   0.26042  0.77796  0.89846
V17   V   0.27796  0.23958  0.39846
V18   V   0.27796  0.23958  0.60154
V19   V   0.27796  0.76042  0.39846
V20   V   0.27796  0.76042  0.60154
V21   V   0.39846  0.27796  0.23958
V22   V   0.39846  0.27796  0.76042
V23   V   0.39846  0.72204  0.23958
V24   V   0.39846  0.72204  0.76042
V25   V   0.60154  0.27796  0.23958
V26   V   0.60154  0.27796  0.76042
V27   V   0.60154  0.72204  0.23958
V28   V   0.60154  0.72204  0.76042
V29   V   0.72204  0.23958  0.39846
V30   V   0.72204  0.23958  0.60154
V31   V   0.72204  0.76042  0.39846
V32   V   0.72204  0.76042  0.60154
V33   V   0.73958  0.22204  0.10154
V34   V   0.73958  0.22204  0.89846
V35   V   0.73958  0.77796  0.10154
V36   V   0.73958  0.77796  0.89846
V37   V   0.76042  0.39846  0.27796
V38   V   0.76042  0.39846  0.72204
V39   V   0.76042  0.60154  0.27796
V40   V   0.76042  0.60154  0.72204
V41   V   0.77796  0.10154  0.26042
V42   V   0.77796  0.10154  0.73958
V43   V   0.77796  0.89846  0.26042
V44   V   0.77796  0.89846  0.73958
V45   V   0.89846  0.26042  0.22204
V46   V   0.89846  0.26042  0.77796
V47   V   0.89846  0.73958  0.22204
V48   V   0.89846  0.73958  0.77796
E1    E   0.00000  0.26042  0.22204
E2    E   0.00000  0.26042  0.77796
E3    E   0.00000  0.73958  0.22204
E4    E   0.00000  0.73958  0.77796
E5    E   0.16179  0.18098  0.24123
E6    E   0.16179  0.18098  0.75877
E7    E   0.16179  0.81902  0.24123
E8    E   0.16179  0.81902  0.75877
E9    E   0.17056  0.32944  0.25000
E10   E   0.17056  0.32944  0.75000
E11   E   0.17056  0.67056  0.25000
E12   E   0.17056  0.67056  0.75000
E13   E   0.18098  0.24123  0.16179
E14   E   0.18098  0.24123  0.83821
E15   E   0.18098  0.75877  0.16179
E16   E   0.18098  0.75877  0.83821
E17   E   0.22204  0.00000  0.26042
E18   E   0.22204  0.00000  0.73958
E19   E   0.23958  0.50000  0.27796
E20   E   0.23958  0.50000  0.72204
E21   E   0.24123  0.16179  0.18098
E22   E   0.24123  0.16179  0.81902
E23   E   0.24123  0.83821  0.18098
E24   E   0.24123  0.83821  0.81902
E25   E   0.25000  0.17056  0.32944
E26   E   0.25000  0.17056  0.67056
E27   E   0.25000  0.82944  0.32944
E28   E   0.25000  0.82944  0.67056
E29   E   0.25877  0.31902  0.33821
E30   E   0.25877  0.31902  0.66179
E31   E   0.25877  0.68098  0.33821
E32   E   0.25877  0.68098  0.66179
E33   E   0.26042  0.22204  0.00000
E34   E   0.26042  0.77796  0.00000
E35   E   0.27796  0.23958  0.50000
E36   E   0.27796  0.76042  0.50000
E37   E   0.31902  0.33821  0.25877
E38   E   0.31902  0.33821  0.74123
E39   E   0.31902  0.66179  0.25877
E40   E   0.31902  0.66179  0.74123
E41   E   0.32944  0.25000  0.17056
E42   E   0.32944  0.25000  0.82944
E43   E   0.32944  0.75000  0.17056
E44   E   0.32944  0.75000  0.82944
E45   E   0.33821  0.25877  0.31902
E46   E   0.33821  0.25877  0.68098
E47   E   0.33821  0.74123  0.31902
E48   E   0.33821  0.74123  0.68098
E49   E   0.50000  0.27796  0.23958
E50   E   0.50000  0.27796  0.76042
E51   E   0.50000  0.72204  0.23958
E52   E   0.50000  0.72204  0.76042
E53   E   0.66179  0.25877  0.31902
E54   E   0.66179  0.25877  0.68098
E55   E   0.66179  0.74123  0.31902
E56   E   0.66179  0.74123  0.68098
E57   E   0.67056  0.25000  0.17056
E58   E   0.67056  0.25000  0.82944
E59   E   0.67056  0.75000  0.17056
E60   E   0.67056  0.75000  0.82944
E61   E   0.68098  0.33821  0.25877
E62   E   0.68098  0.33821  0.74123
E63   E   0.68098  0.66179  0.25877
E64   E   0.68098  0.66179  0.74123
E65   E   0.72204  0.23958  0.50000
E66   E   0.72204  0.76042  0.50000
E67   E   0.73958  0.22204  0.00000
E68   E   0.73958  0.77796  0.00000
E69   E   0.74123  0.31902  0.33821
E70   E   0.74123  0.31902  0.66179
E71   E   0.74123  0.68098  0.33821
E72   E   0.74123  0.68098  0.66179
E73   E   0.75000  0.17056  0.32944
E74   E   0.75000  0.17056  0.67056
E75   E   0.75000  0.82944  0.32944
E76   E   0.75000  0.82944  0.67056
E77   E   0.75877  0.16179  0.18098
E78   E   0.75877  0.16179  0.81902
E79   E   0.75877  0.83821  0.18098
E80   E   0.75877  0.83821  0.81902
E81   E   0.76042  0.50000  0.27796
E82   E   0.76042  0.50000  0.72204
E83   E   0.77796  0.00000  0.26042
E84   E   0.77796  0.00000  0.73958
E85   E   0.81902  0.24123  0.16179
E86   E   0.81902  0.24123  0.83821
E87   E   0.81902  0.75877  0.16179
E88   E   0.81902  0.75877  0.83821
E89   E   0.82944  0.32944  0.25000
E90   E   0.82944  0.32944  0.75000
E91   E   0.82944  0.67056  0.25000
E92   E   0.82944  0.67056  0.75000
E93   E   0.83821  0.18098  0.24123
E94   E   0.83821  0.18098  0.75877
E95   E   0.83821  0.81902  0.24123
E96   E   0.83821  0.81902  0.75877
loop_
