data_ukt_P4/nnc:2  hall_number: 405, V_con: 4
_audit_creation_date              2025-03-05
_audit_creation_method            'MOFbuilder_1.0'
_symmetry_space_group_name_H-M    'P1'
_symmetry_Int_Tables_number       1
_symmetry_cell_setting            triclinic
loop_
_symmetry_equiv_pos_as_xyz
  x,y,z
_cell_length_a                    29.3232
_cell_length_b                    29.3232
_cell_length_c                    23.995199999999997
_cell_angle_alpha                 90.0
_cell_angle_beta                  90.0
_cell_angle_gamma                 90.0
loop_
_atom_site_label
_atom_site_type_symbol
_atom_site_fract_x
_atom_site_fract_y
_atom_site_fract_z
V1    V   0.06170  0.64096  0.91020
V2    V   0.06170  0.85904  0.58980
V3    V   0.14096  0.56170  0.41020
V4    V   0.14096  0.93830  0.08980
V5    V   0.35904  0.56170  0.08980
V6    V   0.35904  0.93830  0.41020
V7    V   0.43830  0.64096  0.58980
V8    V   0.43830  0.85904  0.91020
V9    V   0.56170  0.14096  0.08980
V10   V   0.56170  0.35904  0.41020
V11   V   0.64096  0.06170  0.58980
V12   V   0.64096  0.43830  0.91020
V13   V   0.85904  0.06170  0.91020
V14   V   0.85904  0.43830  0.58980
V15   V   0.93830  0.14096  0.41020
V16   V   0.93830  0.35904  0.08980
E1    E   0.00000  0.00000  0.00000
E2    E   0.00000  0.00000  0.50000
E3    E   0.00000  0.50000  0.00000
E4    E   0.00000  0.50000  0.50000
E5    E   0.06170  0.75000  0.75000
E6    E   0.10133  0.71037  0.50000
E7    E   0.10133  0.78963  0.00000
E8    E   0.21037  0.60133  0.00000
E9    E   0.21037  0.89867  0.50000
E10   E   0.25000  0.56170  0.25000
E11   E   0.25000  0.93830  0.25000
E12   E   0.28963  0.60133  0.50000
E13   E   0.28963  0.89867  0.00000
E14   E   0.39867  0.71037  0.00000
E15   E   0.39867  0.78963  0.50000
E16   E   0.43830  0.75000  0.75000
E17   E   0.50000  0.00000  0.00000
E18   E   0.50000  0.00000  0.50000
E19   E   0.50000  0.50000  0.00000
E20   E   0.50000  0.50000  0.50000
E21   E   0.56170  0.25000  0.25000
E22   E   0.60133  0.21037  0.50000
E23   E   0.60133  0.28963  0.00000
E24   E   0.71037  0.10133  0.00000
E25   E   0.71037  0.39867  0.50000
E26   E   0.75000  0.06170  0.75000
E27   E   0.75000  0.43830  0.75000
E28   E   0.78963  0.10133  0.50000
E29   E   0.78963  0.39867  0.00000
E30   E   0.89867  0.21037  0.00000
E31   E   0.89867  0.28963  0.50000
E32   E   0.93830  0.25000  0.25000
loop_
