data_uky_I4132  hall_number: 510, V_con: 4
_audit_creation_date              2025-03-05
_audit_creation_method            'MOFbuilder_1.0'
_symmetry_space_group_name_H-M    'P1'
_symmetry_Int_Tables_number       1
_symmetry_cell_setting            triclinic
loop_
_symmetry_equiv_pos_as_xyz
  x,y,z
_cell_length_a                    43.35810000000001
_cell_length_b                    43.35810000000001
_cell_length_c                    43.35810000000001
_cell_angle_alpha                 90.0
_cell_angle_beta                  90.0
_cell_angle_gamma                 90.0
loop_
_atom_site_label
_atom_site_type_symbol
_atom_site_fract_x
_atom_site_fract_y
_atom_site_fract_z
V1    V   0.01281  0.03271  0.86058
V2    V   0.01281  0.96729  0.63942
V3    V   0.03271  0.13942  0.48719
V4    V   0.03271  0.86058  0.01281
V5    V   0.11058  0.21729  0.76281
V6    V   0.11058  0.78271  0.73719
V7    V   0.13942  0.48719  0.03271
V8    V   0.13942  0.51281  0.46729
V9    V   0.21729  0.23719  0.38942
V10   V   0.21729  0.76281  0.11058
V11   V   0.23719  0.38942  0.21729
V12   V   0.23719  0.61058  0.28271
V13   V   0.26281  0.38942  0.78271
V14   V   0.26281  0.61058  0.71729
V15   V   0.28271  0.23719  0.61058
V16   V   0.28271  0.76281  0.88942
V17   V   0.36058  0.48719  0.96729
V18   V   0.36058  0.51281  0.53271
V19   V   0.38942  0.21729  0.23719
V20   V   0.38942  0.78271  0.26281
V21   V   0.46729  0.13942  0.51281
V22   V   0.46729  0.86058  0.98719
V23   V   0.48719  0.03271  0.13942
V24   V   0.48719  0.96729  0.36058
V25   V   0.51281  0.46729  0.13942
V26   V   0.51281  0.53271  0.36058
V27   V   0.53271  0.36058  0.51281
V28   V   0.53271  0.63942  0.98719
V29   V   0.61058  0.28271  0.23719
V30   V   0.61058  0.71729  0.26281
V31   V   0.63942  0.01281  0.96729
V32   V   0.63942  0.98719  0.53271
V33   V   0.71729  0.26281  0.61058
V34   V   0.71729  0.73719  0.88942
V35   V   0.73719  0.11058  0.78271
V36   V   0.73719  0.88942  0.71729
V37   V   0.76281  0.11058  0.21729
V38   V   0.76281  0.88942  0.28271
V39   V   0.78271  0.26281  0.38942
V40   V   0.78271  0.73719  0.11058
V41   V   0.86058  0.01281  0.03271
V42   V   0.86058  0.98719  0.46729
V43   V   0.88942  0.28271  0.76281
V44   V   0.88942  0.71729  0.73719
V45   V   0.96729  0.36058  0.48719
V46   V   0.96729  0.63942  0.01281
V47   V   0.98719  0.46729  0.86058
V48   V   0.98719  0.53271  0.63942
E1    E   0.00000  0.25000  0.48719
E2    E   0.00000  0.25000  0.76281
E3    E   0.00000  0.75000  0.01281
E4    E   0.00000  0.75000  0.73719
E5    E   0.01281  0.00000  0.75000
E6    E   0.02276  0.05335  0.56330
E7    E   0.02276  0.94665  0.93670
E8    E   0.05335  0.43670  0.47724
E9    E   0.05335  0.56330  0.02276
E10   E   0.06170  0.12500  0.81170
E11   E   0.06170  0.87500  0.68830
E12   E   0.06170  0.12500  0.81170
E13   E   0.06170  0.87500  0.68830
E14   E   0.06330  0.47724  0.94665
E15   E   0.06330  0.52276  0.55335
E16   E   0.12500  0.18830  0.43830
E17   E   0.12500  0.18830  0.43830
E18   E   0.12500  0.81170  0.06170
E19   E   0.12500  0.81170  0.06170
E20   E   0.18670  0.30335  0.77276
E21   E   0.18670  0.69665  0.72724
E22   E   0.18830  0.43830  0.12500
E23   E   0.18830  0.56170  0.37500
E24   E   0.18830  0.43830  0.12500
E25   E   0.18830  0.56170  0.37500
E26   E   0.19665  0.22724  0.68670
E27   E   0.19665  0.77276  0.81330
E28   E   0.22724  0.31330  0.30335
E29   E   0.22724  0.68670  0.19665
E30   E   0.23719  0.50000  0.25000
E31   E   0.25000  0.23719  0.50000
E32   E   0.25000  0.48719  0.00000
E33   E   0.25000  0.51281  0.50000
E34   E   0.25000  0.76281  0.00000
E35   E   0.26281  0.50000  0.75000
E36   E   0.27276  0.31330  0.69665
E37   E   0.27276  0.68670  0.80335
E38   E   0.30335  0.22724  0.31330
E39   E   0.30335  0.77276  0.18670
E40   E   0.31170  0.43830  0.87500
E41   E   0.31170  0.56170  0.62500
E42   E   0.31330  0.30335  0.22724
E43   E   0.31330  0.69665  0.27276
E44   E   0.37500  0.18830  0.56170
E45   E   0.37500  0.18830  0.56170
E46   E   0.37500  0.81170  0.93830
E47   E   0.43670  0.47724  0.05335
E48   E   0.43670  0.52276  0.44665
E49   E   0.43830  0.12500  0.18830
E50   E   0.43830  0.12500  0.18830
E51   E   0.43830  0.87500  0.31170
E52   E   0.44665  0.43670  0.52276
E53   E   0.44665  0.56330  0.97724
E54   E   0.47724  0.05335  0.43670
E55   E   0.47724  0.94665  0.06330
E56   E   0.48719  0.00000  0.25000
E57   E   0.50000  0.25000  0.23719
E58   E   0.50000  0.25000  0.51281
E59   E   0.50000  0.75000  0.26281
E60   E   0.50000  0.75000  0.98719
E61   E   0.51281  0.50000  0.25000
E62   E   0.52276  0.44665  0.43670
E63   E   0.52276  0.55335  0.06330
E64   E   0.55335  0.06330  0.52276
E65   E   0.55335  0.93670  0.97724
E66   E   0.56170  0.37500  0.18830
E67   E   0.56170  0.37500  0.18830
E68   E   0.56170  0.62500  0.31170
E69   E   0.56330  0.02276  0.05335
E70   E   0.56330  0.97724  0.44665
E71   E   0.62500  0.31170  0.56170
E72   E   0.62500  0.68830  0.93830
E73   E   0.68670  0.19665  0.22724
E74   E   0.68670  0.80335  0.27276
E75   E   0.68830  0.06170  0.87500
E76   E   0.68830  0.06170  0.87500
E77   E   0.68830  0.93830  0.62500
E78   E   0.69665  0.27276  0.31330
E79   E   0.69665  0.72724  0.18670
E80   E   0.72724  0.18670  0.69665
E81   E   0.72724  0.81330  0.80335
E82   E   0.73719  0.00000  0.75000
E83   E   0.75000  0.01281  0.00000
E84   E   0.75000  0.26281  0.50000
E85   E   0.75000  0.73719  0.00000
E86   E   0.75000  0.98719  0.50000
E87   E   0.76281  0.00000  0.25000
E88   E   0.77276  0.18670  0.30335
E89   E   0.77276  0.81330  0.19665
E90   E   0.80335  0.27276  0.68670
E91   E   0.80335  0.72724  0.81330
E92   E   0.81170  0.06170  0.12500
E93   E   0.81170  0.06170  0.12500
E94   E   0.81170  0.93830  0.37500
E95   E   0.81330  0.19665  0.77276
E96   E   0.81330  0.80335  0.72724
E97   E   0.87500  0.31170  0.43830
E98   E   0.87500  0.68830  0.06170
E99   E   0.87500  0.68830  0.06170
E100  E   0.93670  0.02276  0.94665
E101  E   0.93670  0.97724  0.55335
E102  E   0.93830  0.37500  0.81170
E103  E   0.93830  0.62500  0.68830
E104  E   0.94665  0.06330  0.47724
E105  E   0.94665  0.93670  0.02276
E106  E   0.97724  0.44665  0.56330
E107  E   0.97724  0.55335  0.93670
E108  E   0.98719  0.50000  0.75000
loop_
