data_ulf_I4132  hall_number: 510, V_con: 4
_audit_creation_date              2025-03-05
_audit_creation_method            'MOFbuilder_1.0'
_symmetry_space_group_name_H-M    'P1'
_symmetry_Int_Tables_number       1
_symmetry_cell_setting            triclinic
loop_
_symmetry_equiv_pos_as_xyz
  x,y,z
_cell_length_a                    16.521900000000002
_cell_length_b                    16.521900000000002
_cell_length_c                    16.521900000000002
_cell_angle_alpha                 90.0
_cell_angle_beta                  90.0
_cell_angle_gamma                 90.0
loop_
_atom_site_label
_atom_site_type_symbol
_atom_site_fract_x
_atom_site_fract_y
_atom_site_fract_z
V1    V   0.00121  0.31305  0.82593
V2    V   0.00121  0.68695  0.67407
V3    V   0.06305  0.25121  0.42407
V4    V   0.06305  0.74879  0.07593
V5    V   0.07593  0.06305  0.74879
V6    V   0.07593  0.93695  0.75121
V7    V   0.17407  0.49879  0.31305
V8    V   0.17407  0.50121  0.18695
V9    V   0.18695  0.17407  0.50121
V10   V   0.18695  0.82593  0.99879
V11   V   0.24879  0.42407  0.93695
V12   V   0.24879  0.57593  0.56305
V13   V   0.25121  0.42407  0.06305
V14   V   0.25121  0.57593  0.43695
V15   V   0.31305  0.17407  0.49879
V16   V   0.31305  0.82593  0.00121
V17   V   0.32593  0.49879  0.68695
V18   V   0.32593  0.50121  0.81305
V19   V   0.42407  0.06305  0.25121
V20   V   0.42407  0.93695  0.24879
V21   V   0.43695  0.25121  0.57593
V22   V   0.43695  0.74879  0.92407
V23   V   0.49879  0.31305  0.17407
V24   V   0.49879  0.68695  0.32593
V25   V   0.50121  0.18695  0.17407
V26   V   0.50121  0.81305  0.32593
V27   V   0.56305  0.24879  0.57593
V28   V   0.56305  0.75121  0.92407
V29   V   0.57593  0.43695  0.25121
V30   V   0.57593  0.56305  0.24879
V31   V   0.67407  0.00121  0.68695
V32   V   0.67407  0.99879  0.81305
V33   V   0.68695  0.32593  0.49879
V34   V   0.68695  0.67407  0.00121
V35   V   0.74879  0.07593  0.06305
V36   V   0.74879  0.92407  0.43695
V37   V   0.75121  0.07593  0.93695
V38   V   0.75121  0.92407  0.56305
V39   V   0.81305  0.32593  0.50121
V40   V   0.81305  0.67407  0.99879
V41   V   0.82593  0.00121  0.31305
V42   V   0.82593  0.99879  0.18695
V43   V   0.92407  0.43695  0.74879
V44   V   0.92407  0.56305  0.75121
V45   V   0.93695  0.24879  0.42407
V46   V   0.93695  0.75121  0.07593
V47   V   0.99879  0.18695  0.82593
V48   V   0.99879  0.81305  0.67407
E1    E   0.00000  0.25000  0.31305
E2    E   0.00000  0.25000  0.93695
E3    E   0.00000  0.75000  0.18695
E4    E   0.00000  0.75000  0.56305
E5    E   0.03092  0.21908  0.12500
E6    E   0.03092  0.78092  0.37500
E7    E   0.03092  0.21908  0.12500
E8    E   0.03092  0.78092  0.37500
E9    E   0.06305  0.50000  0.25000
E10   E   0.06949  0.08643  0.34287
E11   E   0.06949  0.91357  0.15713
E12   E   0.08643  0.34287  0.06949
E13   E   0.08643  0.65713  0.43051
E14   E   0.09287  0.33643  0.18051
E15   E   0.09287  0.66357  0.31949
E16   E   0.12500  0.03092  0.21908
E17   E   0.12500  0.03092  0.21908
E18   E   0.12500  0.96908  0.28092
E19   E   0.12500  0.96908  0.28092
E20   E   0.15713  0.06949  0.91357
E21   E   0.15713  0.93051  0.58643
E22   E   0.16357  0.18051  0.90713
E23   E   0.16357  0.81949  0.59287
E24   E   0.18051  0.09287  0.33643
E25   E   0.18051  0.90713  0.16357
E26   E   0.18695  0.00000  0.75000
E27   E   0.21908  0.12500  0.03092
E28   E   0.21908  0.12500  0.03092
E29   E   0.21908  0.87500  0.46908
E30   E   0.25000  0.06305  0.50000
E31   E   0.25000  0.31305  0.00000
E32   E   0.25000  0.68695  0.50000
E33   E   0.25000  0.93695  0.00000
E34   E   0.28092  0.12500  0.96908
E35   E   0.28092  0.12500  0.96908
E36   E   0.28092  0.87500  0.53092
E37   E   0.28092  0.87500  0.53092
E38   E   0.31305  0.00000  0.25000
E39   E   0.31949  0.09287  0.66357
E40   E   0.31949  0.90713  0.83643
E41   E   0.33643  0.18051  0.09287
E42   E   0.33643  0.81949  0.40713
E43   E   0.34287  0.06949  0.08643
E44   E   0.34287  0.93051  0.41357
E45   E   0.37500  0.03092  0.78092
E46   E   0.37500  0.03092  0.78092
E47   E   0.37500  0.96908  0.71908
E48   E   0.37500  0.96908  0.71908
E49   E   0.40713  0.33643  0.81949
E50   E   0.40713  0.66357  0.68051
E51   E   0.41357  0.34287  0.93051
E52   E   0.41357  0.65713  0.56949
E53   E   0.43051  0.08643  0.65713
E54   E   0.43051  0.91357  0.84287
E55   E   0.43695  0.50000  0.75000
E56   E   0.46908  0.21908  0.87500
E57   E   0.46908  0.78092  0.62500
E58   E   0.46908  0.78092  0.62500
E59   E   0.50000  0.25000  0.06305
E60   E   0.50000  0.25000  0.68695
E61   E   0.50000  0.75000  0.43695
E62   E   0.50000  0.75000  0.81305
E63   E   0.53092  0.28092  0.87500
E64   E   0.53092  0.71908  0.62500
E65   E   0.53092  0.28092  0.87500
E66   E   0.53092  0.71908  0.62500
E67   E   0.56305  0.00000  0.75000
E68   E   0.56949  0.41357  0.65713
E69   E   0.56949  0.58643  0.84287
E70   E   0.58643  0.15713  0.93051
E71   E   0.58643  0.84287  0.56949
E72   E   0.59287  0.16357  0.81949
E73   E   0.59287  0.83643  0.68051
E74   E   0.62500  0.46908  0.78092
E75   E   0.62500  0.46908  0.78092
E76   E   0.62500  0.53092  0.71908
E77   E   0.62500  0.53092  0.71908
E78   E   0.65713  0.43051  0.08643
E79   E   0.65713  0.56949  0.41357
E80   E   0.66357  0.31949  0.09287
E81   E   0.66357  0.68051  0.40713
E82   E   0.68051  0.40713  0.66357
E83   E   0.68051  0.59287  0.83643
E84   E   0.68695  0.50000  0.25000
E85   E   0.71908  0.37500  0.96908
E86   E   0.71908  0.62500  0.53092
E87   E   0.71908  0.37500  0.96908
E88   E   0.71908  0.62500  0.53092
E89   E   0.75000  0.18695  0.00000
E90   E   0.75000  0.43695  0.50000
E91   E   0.75000  0.56305  0.00000
E92   E   0.75000  0.81305  0.50000
E93   E   0.78092  0.37500  0.03092
E94   E   0.78092  0.62500  0.46908
E95   E   0.78092  0.37500  0.03092
E96   E   0.78092  0.62500  0.46908
E97   E   0.81305  0.50000  0.75000
E98   E   0.81949  0.40713  0.33643
E99   E   0.81949  0.59287  0.16357
E100  E   0.83643  0.31949  0.90713
E101  E   0.83643  0.68051  0.59287
E102  E   0.84287  0.43051  0.91357
E103  E   0.84287  0.56949  0.58643
E104  E   0.87500  0.46908  0.21908
E105  E   0.87500  0.53092  0.28092
E106  E   0.87500  0.53092  0.28092
E107  E   0.90713  0.16357  0.18051
E108  E   0.90713  0.83643  0.31949
E109  E   0.91357  0.15713  0.06949
E110  E   0.91357  0.84287  0.43051
E111  E   0.93051  0.41357  0.34287
E112  E   0.93051  0.58643  0.15713
E113  E   0.93695  0.00000  0.25000
E114  E   0.96908  0.28092  0.12500
E115  E   0.96908  0.71908  0.37500
E116  E   0.96908  0.28092  0.12500
E117  E   0.96908  0.71908  0.37500
loop_
