data_ull_I432  hall_number: 507, V_con: 4
_audit_creation_date              2025-03-05
_audit_creation_method            'MOFbuilder_1.0'
_symmetry_space_group_name_H-M    'P1'
_symmetry_Int_Tables_number       1
_symmetry_cell_setting            triclinic
loop_
_symmetry_equiv_pos_as_xyz
  x,y,z
_cell_length_a                    40.9027
_cell_length_b                    40.9027
_cell_length_c                    40.9027
_cell_angle_alpha                 90.0
_cell_angle_beta                  90.0
_cell_angle_gamma                 90.0
loop_
_atom_site_label
_atom_site_type_symbol
_atom_site_fract_x
_atom_site_fract_y
_atom_site_fract_z
V1    V   0.03948  0.16831  0.66808
V2    V   0.03948  0.33192  0.16831
V3    V   0.03948  0.66808  0.83169
V4    V   0.03948  0.83169  0.33192
V5    V   0.16808  0.33169  0.53948
V6    V   0.16808  0.46052  0.33169
V7    V   0.16808  0.53948  0.66831
V8    V   0.16808  0.66831  0.46052
V9    V   0.16831  0.03948  0.33192
V10   V   0.16831  0.33192  0.96052
V11   V   0.16831  0.66808  0.03948
V12   V   0.16831  0.96052  0.66808
V13   V   0.33169  0.16808  0.46052
V14   V   0.33169  0.46052  0.83192
V15   V   0.33169  0.53948  0.16808
V16   V   0.33169  0.83192  0.53948
V17   V   0.33192  0.03948  0.83169
V18   V   0.33192  0.16831  0.03948
V19   V   0.33192  0.83169  0.96052
V20   V   0.33192  0.96052  0.16831
V21   V   0.46052  0.16808  0.66831
V22   V   0.46052  0.33169  0.16808
V23   V   0.46052  0.66831  0.83192
V24   V   0.46052  0.83192  0.33169
V25   V   0.53948  0.16808  0.33169
V26   V   0.53948  0.33169  0.83192
V27   V   0.53948  0.66831  0.16808
V28   V   0.53948  0.83192  0.66831
V29   V   0.66808  0.03948  0.16831
V30   V   0.66808  0.16831  0.96052
V31   V   0.66808  0.83169  0.03948
V32   V   0.66808  0.96052  0.83169
V33   V   0.66831  0.16808  0.53948
V34   V   0.66831  0.46052  0.16808
V35   V   0.66831  0.53948  0.83192
V36   V   0.66831  0.83192  0.46052
V37   V   0.83169  0.03948  0.66808
V38   V   0.83169  0.33192  0.03948
V39   V   0.83169  0.66808  0.96052
V40   V   0.83169  0.96052  0.33192
V41   V   0.83192  0.33169  0.46052
V42   V   0.83192  0.46052  0.66831
V43   V   0.83192  0.53948  0.33169
V44   V   0.83192  0.66831  0.53948
V45   V   0.96052  0.16831  0.33192
V46   V   0.96052  0.33192  0.83169
V47   V   0.96052  0.66808  0.16831
V48   V   0.96052  0.83169  0.66808
E1    E   0.00000  0.25011  0.25011
E2    E   0.00000  0.25011  0.74989
E3    E   0.00000  0.74989  0.25011
E4    E   0.00000  0.74989  0.74989
E5    E   0.06441  0.10389  0.33192
E6    E   0.06441  0.33192  0.89611
E7    E   0.06441  0.66808  0.10389
E8    E   0.06441  0.89611  0.66808
E9    E   0.10378  0.25000  0.60378
E10   E   0.10378  0.39622  0.25000
E11   E   0.10378  0.60378  0.75000
E12   E   0.10378  0.75000  0.39622
E13   E   0.10378  0.25000  0.60378
E14   E   0.10378  0.39622  0.25000
E15   E   0.10378  0.60378  0.75000
E16   E   0.10378  0.75000  0.39622
E17   E   0.10389  0.06441  0.66808
E18   E   0.10389  0.33192  0.06441
E19   E   0.10389  0.66808  0.93559
E20   E   0.10389  0.93559  0.33192
E21   E   0.16808  0.39611  0.43559
E22   E   0.16808  0.43559  0.60389
E23   E   0.16808  0.56441  0.39611
E24   E   0.16808  0.60389  0.56441
E25   E   0.24989  0.24989  0.50000
E26   E   0.24989  0.50000  0.24989
E27   E   0.24989  0.50000  0.75011
E28   E   0.24989  0.75011  0.50000
E29   E   0.25000  0.10378  0.39622
E30   E   0.25000  0.10378  0.39622
E31   E   0.25000  0.39622  0.89622
E32   E   0.25000  0.60378  0.10378
E33   E   0.25000  0.60378  0.10378
E34   E   0.25000  0.89622  0.60378
E35   E   0.25011  0.00000  0.25011
E36   E   0.25011  0.00000  0.74989
E37   E   0.25011  0.25011  0.00000
E38   E   0.25011  0.74989  0.00000
E39   E   0.33192  0.06441  0.10389
E40   E   0.33192  0.10389  0.93559
E41   E   0.33192  0.89611  0.06441
E42   E   0.33192  0.93559  0.89611
E43   E   0.39611  0.16808  0.56441
E44   E   0.39611  0.43559  0.16808
E45   E   0.39611  0.56441  0.83192
E46   E   0.39611  0.83192  0.43559
E47   E   0.39622  0.10378  0.75000
E48   E   0.39622  0.10378  0.75000
E49   E   0.39622  0.25000  0.10378
E50   E   0.39622  0.25000  0.10378
E51   E   0.39622  0.75000  0.89622
E52   E   0.39622  0.89622  0.25000
E53   E   0.43559  0.16808  0.39611
E54   E   0.43559  0.39611  0.83192
E55   E   0.43559  0.60389  0.16808
E56   E   0.43559  0.83192  0.60389
E57   E   0.50000  0.24989  0.24989
E58   E   0.50000  0.24989  0.75011
E59   E   0.50000  0.75011  0.24989
E60   E   0.50000  0.75011  0.75011
E61   E   0.56441  0.16808  0.60389
E62   E   0.56441  0.39611  0.16808
E63   E   0.56441  0.60389  0.83192
E64   E   0.56441  0.83192  0.39611
E65   E   0.60378  0.10378  0.25000
E66   E   0.60378  0.10378  0.25000
E67   E   0.60378  0.25000  0.89622
E68   E   0.60378  0.75000  0.10378
E69   E   0.60378  0.75000  0.10378
E70   E   0.60378  0.89622  0.75000
E71   E   0.60389  0.16808  0.43559
E72   E   0.60389  0.43559  0.83192
E73   E   0.60389  0.56441  0.16808
E74   E   0.60389  0.83192  0.56441
E75   E   0.66808  0.06441  0.89611
E76   E   0.66808  0.10389  0.06441
E77   E   0.66808  0.89611  0.93559
E78   E   0.66808  0.93559  0.10389
E79   E   0.74989  0.00000  0.25011
E80   E   0.74989  0.00000  0.74989
E81   E   0.74989  0.25011  0.00000
E82   E   0.74989  0.74989  0.00000
E83   E   0.75000  0.10378  0.60378
E84   E   0.75000  0.10378  0.60378
E85   E   0.75000  0.39622  0.10378
E86   E   0.75000  0.39622  0.10378
E87   E   0.75000  0.60378  0.89622
E88   E   0.75000  0.89622  0.39622
E89   E   0.75011  0.24989  0.50000
E90   E   0.75011  0.50000  0.24989
E91   E   0.75011  0.50000  0.75011
E92   E   0.75011  0.75011  0.50000
E93   E   0.83192  0.39611  0.56441
E94   E   0.83192  0.43559  0.39611
E95   E   0.83192  0.56441  0.60389
E96   E   0.83192  0.60389  0.43559
E97   E   0.89611  0.06441  0.33192
E98   E   0.89611  0.33192  0.93559
E99   E   0.89611  0.66808  0.06441
E100  E   0.89611  0.93559  0.66808
E101  E   0.89622  0.25000  0.39622
E102  E   0.89622  0.39622  0.75000
E103  E   0.89622  0.60378  0.25000
E104  E   0.89622  0.75000  0.60378
E105  E   0.93559  0.10389  0.66808
E106  E   0.93559  0.33192  0.10389
E107  E   0.93559  0.66808  0.89611
E108  E   0.93559  0.89611  0.33192
loop_
