data_umj_P6222  hall_number: 474, V_con: 4
_audit_creation_date              2025-03-05
_audit_creation_method            'MOFbuilder_1.0'
_symmetry_space_group_name_H-M    'P1'
_symmetry_Int_Tables_number       1
_symmetry_cell_setting            triclinic
loop_
_symmetry_equiv_pos_as_xyz
  x,y,z
_cell_length_a                    19.9258
_cell_length_b                    19.9258
_cell_length_c                    57.0638
_cell_angle_alpha                 90.0
_cell_angle_beta                  90.0
_cell_angle_gamma                 120.0
loop_
_atom_site_label
_atom_site_type_symbol
_atom_site_fract_x
_atom_site_fract_y
_atom_site_fract_z
V1    V   0.02494  0.26247  0.07937
V2    V   0.02494  0.76247  0.25396
V3    V   0.23753  0.26247  0.92063
V4    V   0.23753  0.97506  0.41270
V5    V   0.26247  0.02494  0.58730
V6    V   0.26247  0.23753  0.74604
V7    V   0.73753  0.76247  0.74604
V8    V   0.73753  0.97506  0.58730
V9    V   0.76247  0.02494  0.41270
V10   V   0.76247  0.73753  0.92063
V11   V   0.97506  0.23753  0.25396
V12   V   0.97506  0.73753  0.07937
E1    E   0.00000  0.00000  0.07937
E2    E   0.00000  0.00000  0.25396
E3    E   0.00000  0.00000  0.41270
E4    E   0.00000  0.00000  0.58730
E5    E   0.00000  0.00000  0.74604
E6    E   0.00000  0.00000  0.92063
E7    E   0.00000  0.25000  0.16666
E8    E   0.00000  0.25000  0.16667
E9    E   0.00000  0.50000  0.07937
E10   E   0.00000  0.50000  0.25396
E11   E   0.00000  0.75000  0.16666
E12   E   0.00000  0.75000  0.16667
E13   E   0.13123  0.26247  0.00000
E14   E   0.13123  0.86876  0.33333
E15   E   0.13124  0.26247  0.00000
E16   E   0.13124  0.86877  0.33333
E17   E   0.25000  0.00000  0.50000
E18   E   0.25000  0.00000  0.50000
E19   E   0.25000  0.25000  0.83333
E20   E   0.25000  0.25000  0.83334
E21   E   0.26247  0.13123  0.66667
E22   E   0.26247  0.13124  0.66667
E23   E   0.50000  0.00000  0.41270
E24   E   0.50000  0.00000  0.58730
E25   E   0.50000  0.50000  0.74604
E26   E   0.50000  0.50000  0.92063
E27   E   0.73753  0.86876  0.66667
E28   E   0.73753  0.86877  0.66667
E29   E   0.75000  0.00000  0.50000
E30   E   0.75000  0.00000  0.50000
E31   E   0.75000  0.75000  0.83333
E32   E   0.75000  0.75000  0.83334
E33   E   0.86876  0.13123  0.33333
E34   E   0.86876  0.73753  0.00000
E35   E   0.86877  0.13124  0.33333
E36   E   0.86877  0.73753  0.00000
loop_
