data_umq_I4/mcm  hall_number: 425, V_con: 4
_audit_creation_date              2025-03-05
_audit_creation_method            'MOFbuilder_1.0'
_symmetry_space_group_name_H-M    'P1'
_symmetry_Int_Tables_number       1
_symmetry_cell_setting            triclinic
loop_
_symmetry_equiv_pos_as_xyz
  x,y,z
_cell_length_a                    45.0382
_cell_length_b                    45.0382
_cell_length_c                    28.511400000000002
_cell_angle_alpha                 90.0
_cell_angle_beta                  90.0
_cell_angle_gamma                 90.0
loop_
_atom_site_label
_atom_site_type_symbol
_atom_site_fract_x
_atom_site_fract_y
_atom_site_fract_z
V1    V   0.10046  0.24254  0.32463
V2    V   0.10046  0.24254  0.67537
V3    V   0.10046  0.75746  0.17537
V4    V   0.10046  0.75746  0.82463
V5    V   0.24254  0.10046  0.17537
V6    V   0.24254  0.10046  0.82463
V7    V   0.24254  0.89954  0.32463
V8    V   0.24254  0.89954  0.67537
V9    V   0.25746  0.39954  0.32463
V10   V   0.25746  0.39954  0.67537
V11   V   0.25746  0.60046  0.17537
V12   V   0.25746  0.60046  0.82463
V13   V   0.39954  0.25746  0.17537
V14   V   0.39954  0.25746  0.82463
V15   V   0.39954  0.74254  0.32463
V16   V   0.39954  0.74254  0.67537
V17   V   0.60046  0.25746  0.32463
V18   V   0.60046  0.25746  0.67537
V19   V   0.60046  0.74254  0.17537
V20   V   0.60046  0.74254  0.82463
V21   V   0.74254  0.39954  0.17537
V22   V   0.74254  0.39954  0.82463
V23   V   0.74254  0.60046  0.32463
V24   V   0.74254  0.60046  0.67537
V25   V   0.75746  0.10046  0.32463
V26   V   0.75746  0.10046  0.67537
V27   V   0.75746  0.89954  0.17537
V28   V   0.75746  0.89954  0.82463
V29   V   0.89954  0.24254  0.17537
V30   V   0.89954  0.24254  0.82463
V31   V   0.89954  0.75746  0.32463
V32   V   0.89954  0.75746  0.67537
E1    E   0.00000  0.24254  0.25000
E2    E   0.00000  0.24254  0.75000
E3    E   0.00000  0.75746  0.25000
E4    E   0.00000  0.75746  0.75000
E5    E   0.10046  0.24254  0.50000
E6    E   0.10046  0.75746  0.00000
E7    E   0.17150  0.17150  0.25000
E8    E   0.17150  0.17150  0.75000
E9    E   0.17150  0.82850  0.25000
E10   E   0.17150  0.82850  0.75000
E11   E   0.17896  0.32104  0.32463
E12   E   0.17896  0.32104  0.67537
E13   E   0.17896  0.67896  0.17537
E14   E   0.17896  0.67896  0.82463
E15   E   0.24254  0.00000  0.25000
E16   E   0.24254  0.00000  0.75000
E17   E   0.24254  0.10046  0.00000
E18   E   0.24254  0.89954  0.50000
E19   E   0.25746  0.39954  0.50000
E20   E   0.25746  0.50000  0.25000
E21   E   0.25746  0.50000  0.75000
E22   E   0.25746  0.60046  0.00000
E23   E   0.32104  0.17896  0.17537
E24   E   0.32104  0.17896  0.82463
E25   E   0.32104  0.82104  0.32463
E26   E   0.32104  0.82104  0.67537
E27   E   0.32850  0.32850  0.25000
E28   E   0.32850  0.32850  0.75000
E29   E   0.32850  0.67150  0.25000
E30   E   0.32850  0.67150  0.75000
E31   E   0.39954  0.25746  0.00000
E32   E   0.39954  0.74254  0.50000
E33   E   0.50000  0.25746  0.25000
E34   E   0.50000  0.25746  0.75000
E35   E   0.50000  0.74254  0.25000
E36   E   0.50000  0.74254  0.75000
E37   E   0.60046  0.25746  0.50000
E38   E   0.60046  0.74254  0.00000
E39   E   0.67150  0.32850  0.25000
E40   E   0.67150  0.32850  0.75000
E41   E   0.67150  0.67150  0.25000
E42   E   0.67150  0.67150  0.75000
E43   E   0.67896  0.17896  0.32463
E44   E   0.67896  0.17896  0.67537
E45   E   0.67896  0.82104  0.17537
E46   E   0.67896  0.82104  0.82463
E47   E   0.74254  0.39954  0.00000
E48   E   0.74254  0.50000  0.25000
E49   E   0.74254  0.50000  0.75000
E50   E   0.74254  0.60046  0.50000
E51   E   0.75746  0.00000  0.25000
E52   E   0.75746  0.00000  0.75000
E53   E   0.75746  0.10046  0.50000
E54   E   0.75746  0.89954  0.00000
E55   E   0.82104  0.32104  0.17537
E56   E   0.82104  0.32104  0.82463
E57   E   0.82104  0.67896  0.32463
E58   E   0.82104  0.67896  0.67537
E59   E   0.82850  0.17150  0.25000
E60   E   0.82850  0.17150  0.75000
E61   E   0.82850  0.82850  0.25000
E62   E   0.82850  0.82850  0.75000
E63   E   0.89954  0.24254  0.00000
E64   E   0.89954  0.75746  0.50000
loop_
