data_umr_I41/acd:2  hall_number: 429, V_con: 4
_audit_creation_date              2025-03-05
_audit_creation_method            'MOFbuilder_1.0'
_symmetry_space_group_name_H-M    'P1'
_symmetry_Int_Tables_number       1
_symmetry_cell_setting            triclinic
loop_
_symmetry_equiv_pos_as_xyz
  x,y,z
_cell_length_a                    57.9146
_cell_length_b                    57.9146
_cell_length_c                    16.9037
_cell_angle_alpha                 90.0
_cell_angle_beta                  90.0
_cell_angle_gamma                 90.0
loop_
_atom_site_label
_atom_site_type_symbol
_atom_site_fract_x
_atom_site_fract_y
_atom_site_fract_z
V1    V   0.04614  0.08369  0.67735
V2    V   0.04614  0.41631  0.17735
V3    V   0.04614  0.58369  0.32265
V4    V   0.04614  0.91631  0.82265
V5    V   0.16631  0.20386  0.57265
V6    V   0.16631  0.29614  0.07265
V7    V   0.16631  0.70386  0.42735
V8    V   0.16631  0.79614  0.92735
V9    V   0.33369  0.20386  0.42735
V10   V   0.33369  0.29614  0.92735
V11   V   0.33369  0.70386  0.57265
V12   V   0.33369  0.79614  0.07265
V13   V   0.45386  0.08369  0.32265
V14   V   0.45386  0.41631  0.82265
V15   V   0.45386  0.58369  0.67735
V16   V   0.45386  0.91631  0.17735
V17   V   0.54614  0.08369  0.82265
V18   V   0.54614  0.41631  0.32265
V19   V   0.54614  0.58369  0.17735
V20   V   0.54614  0.91631  0.67735
V21   V   0.66631  0.20386  0.92735
V22   V   0.66631  0.29614  0.42735
V23   V   0.66631  0.70386  0.07265
V24   V   0.66631  0.79614  0.57265
V25   V   0.83369  0.20386  0.07265
V26   V   0.83369  0.29614  0.57265
V27   V   0.83369  0.70386  0.92735
V28   V   0.83369  0.79614  0.42735
V29   V   0.95386  0.08369  0.17735
V30   V   0.95386  0.41631  0.67735
V31   V   0.95386  0.58369  0.82265
V32   V   0.95386  0.91631  0.32265
E1    E   0.00000  0.08369  0.42735
E2    E   0.00000  0.08369  0.92735
E3    E   0.00000  0.41631  0.42735
E4    E   0.00000  0.41631  0.92735
E5    E   0.00000  0.58369  0.07265
E6    E   0.00000  0.58369  0.57265
E7    E   0.00000  0.91631  0.07265
E8    E   0.00000  0.91631  0.57265
E9    E   0.04614  0.00000  0.75000
E10   E   0.04614  0.50000  0.25000
E11   E   0.10623  0.14377  0.62500
E12   E   0.10623  0.35623  0.12500
E13   E   0.10623  0.64377  0.37500
E14   E   0.10623  0.85623  0.87500
E15   E   0.10623  0.14377  0.62500
E16   E   0.10623  0.35623  0.12500
E17   E   0.10623  0.64377  0.37500
E18   E   0.10623  0.85623  0.87500
E19   E   0.16631  0.25000  0.32265
E20   E   0.16631  0.25000  0.82265
E21   E   0.16631  0.75000  0.17735
E22   E   0.16631  0.75000  0.67735
E23   E   0.25000  0.20386  0.50000
E24   E   0.25000  0.29614  0.00000
E25   E   0.25000  0.70386  0.50000
E26   E   0.25000  0.79614  0.00000
E27   E   0.33369  0.25000  0.17735
E28   E   0.33369  0.25000  0.67735
E29   E   0.33369  0.75000  0.32265
E30   E   0.33369  0.75000  0.82265
E31   E   0.39377  0.14377  0.37500
E32   E   0.39377  0.35623  0.87500
E33   E   0.39377  0.64377  0.62500
E34   E   0.39377  0.85623  0.12500
E35   E   0.45386  0.00000  0.25000
E36   E   0.45386  0.50000  0.75000
E37   E   0.50000  0.08369  0.07265
E38   E   0.50000  0.08369  0.57265
E39   E   0.50000  0.41631  0.07265
E40   E   0.50000  0.41631  0.57265
E41   E   0.50000  0.58369  0.42735
E42   E   0.50000  0.58369  0.92735
E43   E   0.50000  0.91631  0.42735
E44   E   0.50000  0.91631  0.92735
E45   E   0.54614  0.00000  0.75000
E46   E   0.54614  0.50000  0.25000
E47   E   0.60623  0.14377  0.87500
E48   E   0.60623  0.35623  0.37500
E49   E   0.60623  0.64377  0.12500
E50   E   0.60623  0.85623  0.62500
E51   E   0.66631  0.25000  0.17735
E52   E   0.66631  0.25000  0.67735
E53   E   0.66631  0.75000  0.32265
E54   E   0.66631  0.75000  0.82265
E55   E   0.75000  0.20386  0.00000
E56   E   0.75000  0.29614  0.50000
E57   E   0.75000  0.70386  0.00000
E58   E   0.75000  0.79614  0.50000
E59   E   0.83369  0.25000  0.32265
E60   E   0.83369  0.25000  0.82265
E61   E   0.83369  0.75000  0.17735
E62   E   0.83369  0.75000  0.67735
E63   E   0.89377  0.14377  0.12500
E64   E   0.89377  0.35623  0.62500
E65   E   0.89377  0.64377  0.87500
E66   E   0.89377  0.85623  0.37500
E67   E   0.95386  0.00000  0.25000
E68   E   0.95386  0.50000  0.75000
loop_
