data_umv_Fddd:2  hall_number: 336, V_con: 4
_audit_creation_date              2025-03-05
_audit_creation_method            'MOFbuilder_1.0'
_symmetry_space_group_name_H-M    'P1'
_symmetry_Int_Tables_number       1
_symmetry_cell_setting            triclinic
loop_
_symmetry_equiv_pos_as_xyz
  x,y,z
_cell_length_a                    63.113299999999995
_cell_length_b                    16.2273
_cell_length_c                    51.7093
_cell_angle_alpha                 90.0
_cell_angle_beta                  90.0
_cell_angle_gamma                 90.0
loop_
_atom_site_label
_atom_site_type_symbol
_atom_site_fract_x
_atom_site_fract_y
_atom_site_fract_z
V1    V   0.04578  0.12500  0.31848
V2    V   0.04578  0.12500  0.93152
V3    V   0.04578  0.62500  0.43152
V4    V   0.04578  0.62500  0.81848
V5    V   0.20422  0.12500  0.31848
V6    V   0.20422  0.12500  0.93152
V7    V   0.20422  0.62500  0.43152
V8    V   0.20422  0.62500  0.81848
V9    V   0.29578  0.37500  0.06848
V10   V   0.29578  0.37500  0.68152
V11   V   0.29578  0.87500  0.18152
V12   V   0.29578  0.87500  0.56848
V13   V   0.45422  0.37500  0.06848
V14   V   0.45422  0.37500  0.68152
V15   V   0.45422  0.87500  0.18152
V16   V   0.45422  0.87500  0.56848
V17   V   0.54578  0.12500  0.43152
V18   V   0.54578  0.12500  0.81848
V19   V   0.54578  0.62500  0.31848
V20   V   0.54578  0.62500  0.93152
V21   V   0.70422  0.12500  0.43152
V22   V   0.70422  0.12500  0.81848
V23   V   0.70422  0.62500  0.31848
V24   V   0.70422  0.62500  0.93152
V25   V   0.79578  0.37500  0.18152
V26   V   0.79578  0.37500  0.56848
V27   V   0.79578  0.87500  0.06848
V28   V   0.79578  0.87500  0.68152
V29   V   0.95422  0.37500  0.18152
V30   V   0.95422  0.37500  0.56848
V31   V   0.95422  0.87500  0.06848
V32   V   0.95422  0.87500  0.68152
E1    E   0.00000  0.00000  0.00000
E2    E   0.00000  0.25000  0.25000
E3    E   0.00000  0.50000  0.50000
E4    E   0.00000  0.75000  0.75000
E5    E   0.04578  0.37500  0.37500
E6    E   0.04578  0.37500  0.87500
E7    E   0.04578  0.87500  0.37500
E8    E   0.04578  0.87500  0.87500
E9    E   0.12500  0.12500  0.31848
E10   E   0.12500  0.12500  0.93152
E11   E   0.12500  0.62500  0.43152
E12   E   0.12500  0.62500  0.81848
E13   E   0.20422  0.37500  0.37500
E14   E   0.20422  0.37500  0.87500
E15   E   0.20422  0.87500  0.37500
E16   E   0.20422  0.87500  0.87500
E17   E   0.25000  0.00000  0.25000
E18   E   0.25000  0.25000  0.00000
E19   E   0.25000  0.50000  0.75000
E20   E   0.25000  0.75000  0.50000
E21   E   0.29578  0.12500  0.12500
E22   E   0.29578  0.12500  0.62500
E23   E   0.29578  0.62500  0.12500
E24   E   0.29578  0.62500  0.62500
E25   E   0.37500  0.37500  0.06848
E26   E   0.37500  0.37500  0.68152
E27   E   0.37500  0.87500  0.18152
E28   E   0.37500  0.87500  0.56848
E29   E   0.45422  0.12500  0.12500
E30   E   0.45422  0.12500  0.62500
E31   E   0.45422  0.62500  0.12500
E32   E   0.45422  0.62500  0.62500
E33   E   0.50000  0.00000  0.50000
E34   E   0.50000  0.25000  0.75000
E35   E   0.50000  0.50000  0.00000
E36   E   0.50000  0.75000  0.25000
E37   E   0.54578  0.37500  0.37500
E38   E   0.54578  0.37500  0.87500
E39   E   0.54578  0.87500  0.37500
E40   E   0.54578  0.87500  0.87500
E41   E   0.62500  0.12500  0.43152
E42   E   0.62500  0.12500  0.81848
E43   E   0.62500  0.62500  0.31848
E44   E   0.62500  0.62500  0.93152
E45   E   0.70422  0.37500  0.37500
E46   E   0.70422  0.37500  0.87500
E47   E   0.70422  0.87500  0.37500
E48   E   0.70422  0.87500  0.87500
E49   E   0.75000  0.00000  0.75000
E50   E   0.75000  0.25000  0.50000
E51   E   0.75000  0.50000  0.25000
E52   E   0.75000  0.75000  0.00000
E53   E   0.79578  0.12500  0.12500
E54   E   0.79578  0.12500  0.62500
E55   E   0.79578  0.62500  0.12500
E56   E   0.79578  0.62500  0.62500
E57   E   0.87500  0.37500  0.18152
E58   E   0.87500  0.37500  0.56848
E59   E   0.87500  0.87500  0.06848
E60   E   0.87500  0.87500  0.68152
E61   E   0.95422  0.12500  0.12500
E62   E   0.95422  0.12500  0.62500
E63   E   0.95422  0.62500  0.12500
E64   E   0.95422  0.62500  0.62500
loop_
