data_una_P6122  hall_number: 472, V_con: 4
_audit_creation_date              2025-03-05
_audit_creation_method            'MOFbuilder_1.0'
_symmetry_space_group_name_H-M    'P1'
_symmetry_Int_Tables_number       1
_symmetry_cell_setting            triclinic
loop_
_symmetry_equiv_pos_as_xyz
  x,y,z
_cell_length_a                    38.9501
_cell_length_b                    38.9501
_cell_length_c                    14.278500000000001
_cell_angle_alpha                 90.0
_cell_angle_beta                  90.0
_cell_angle_gamma                 120.0
loop_
_atom_site_label
_atom_site_type_symbol
_atom_site_fract_x
_atom_site_fract_y
_atom_site_fract_z
V1    V   0.13036  0.44050  0.00000
V2    V   0.13036  0.68986  0.16667
V3    V   0.31014  0.44050  0.50000
V4    V   0.31014  0.86964  0.66667
V5    V   0.44050  0.13036  0.33333
V6    V   0.44050  0.31014  0.83333
V7    V   0.55950  0.68986  0.33333
V8    V   0.55950  0.86964  0.83333
V9    V   0.68986  0.13036  0.16667
V10   V   0.68986  0.55950  0.00000
V11   V   0.86964  0.31014  0.66667
V12   V   0.86964  0.55950  0.50000
E1    E   0.00000  0.37532  0.83333
E2    E   0.00000  0.37532  0.83334
E3    E   0.00000  0.62468  0.33333
E4    E   0.00000  0.62468  0.33334
E5    E   0.13036  0.56518  0.08333
E6    E   0.13036  0.56518  0.08334
E7    E   0.22025  0.44050  0.25000
E8    E   0.22025  0.44050  0.75000
E9    E   0.22025  0.77975  0.41667
E10   E   0.22025  0.77975  0.91667
E11   E   0.37532  0.00000  0.50000
E12   E   0.37532  0.00000  0.50000
E13   E   0.37532  0.37532  0.66666
E14   E   0.37532  0.37532  0.66667
E15   E   0.43482  0.56518  0.41666
E16   E   0.43482  0.56518  0.41667
E17   E   0.43482  0.86964  0.75000
E18   E   0.43482  0.86964  0.75000
E19   E   0.44050  0.22025  0.08333
E20   E   0.44050  0.22025  0.08333
E21   E   0.44050  0.22025  0.58333
E22   E   0.44050  0.22025  0.58333
E23   E   0.55950  0.77975  0.08333
E24   E   0.55950  0.77975  0.08333
E25   E   0.55950  0.77975  0.58333
E26   E   0.55950  0.77975  0.58333
E27   E   0.56518  0.13036  0.25000
E28   E   0.56518  0.13036  0.25000
E29   E   0.56518  0.43482  0.91666
E30   E   0.56518  0.43482  0.91667
E31   E   0.62468  0.00000  0.00000
E32   E   0.62468  0.00000  1.00000
E33   E   0.62468  0.62468  0.16666
E34   E   0.62468  0.62468  0.16667
E35   E   0.77975  0.22025  0.41667
E36   E   0.77975  0.22025  0.91667
E37   E   0.77975  0.55950  0.25000
E38   E   0.77975  0.55950  0.75000
E39   E   0.86964  0.43482  0.58333
E40   E   0.86964  0.43482  0.58334
loop_
