data_uni_P6122  hall_number: 472, V_con: 4
_audit_creation_date              2025-03-05
_audit_creation_method            'MOFbuilder_1.0'
_symmetry_space_group_name_H-M    'P1'
_symmetry_Int_Tables_number       1
_symmetry_cell_setting            triclinic
loop_
_symmetry_equiv_pos_as_xyz
  x,y,z
_cell_length_a                    25.1254
_cell_length_b                    25.1254
_cell_length_c                    16.195
_cell_angle_alpha                 90.0
_cell_angle_beta                  90.0
_cell_angle_gamma                 120.0
loop_
_atom_site_label
_atom_site_type_symbol
_atom_site_fract_x
_atom_site_fract_y
_atom_site_fract_z
V1    V   0.00000  0.38323  0.83333
V2    V   0.00000  0.61677  0.33333
V3    V   0.38323  0.00000  0.50000
V4    V   0.38323  0.38323  0.66667
V5    V   0.61677  0.00000  0.00000
V6    V   0.61677  0.61677  0.16667
E1    E   0.00000  0.50000  0.08333
E2    E   0.00000  0.50000  0.08333
E3    E   0.00000  0.50000  0.58333
E4    E   0.00000  0.50000  0.58333
E5    E   0.19161  0.38323  0.75000
E6    E   0.19161  0.80838  0.41666
E7    E   0.19162  0.38323  0.75000
E8    E   0.19162  0.80839  0.41667
E9    E   0.38323  0.19161  0.58333
E10   E   0.38323  0.19162  0.58334
E11   E   0.50000  0.00000  0.25000
E12   E   0.50000  0.00000  0.75000
E13   E   0.50000  0.50000  0.41667
E14   E   0.50000  0.50000  0.91667
E15   E   0.61677  0.80838  0.08334
E16   E   0.61677  0.80839  0.08333
E17   E   0.80838  0.19161  0.91667
E18   E   0.80838  0.61677  0.25000
E19   E   0.80839  0.19162  0.91666
E20   E   0.80839  0.61677  0.25000
loop_
