data_unj_P6122  hall_number: 472, V_con: 4
_audit_creation_date              2025-03-05
_audit_creation_method            'MOFbuilder_1.0'
_symmetry_space_group_name_H-M    'P1'
_symmetry_Int_Tables_number       1
_symmetry_cell_setting            triclinic
loop_
_symmetry_equiv_pos_as_xyz
  x,y,z
_cell_length_a                    22.642899999999997
_cell_length_b                    22.642899999999997
_cell_length_c                    22.556600000000003
_cell_angle_alpha                 90.0
_cell_angle_beta                  90.0
_cell_angle_gamma                 120.0
loop_
_atom_site_label
_atom_site_type_symbol
_atom_site_fract_x
_atom_site_fract_y
_atom_site_fract_z
V1    V   0.23627  0.47255  0.75000
V2    V   0.23627  0.76372  0.41667
V3    V   0.23628  0.47255  0.75000
V4    V   0.23628  0.76373  0.41666
V5    V   0.47255  0.23627  0.58334
V6    V   0.47255  0.23628  0.58333
V7    V   0.52745  0.76372  0.08333
V8    V   0.52745  0.76373  0.08334
V9    V   0.76372  0.23627  0.91666
V10   V   0.76372  0.52745  0.25000
V11   V   0.76373  0.23628  0.91667
V12   V   0.76373  0.52745  0.25000
E1    E   0.00000  0.35441  0.83333
E2    E   0.00000  0.64559  0.33333
E3    E   0.00000  0.64559  0.33333
E4    E   0.23628  0.61814  0.58333
E5    E   0.23628  0.61814  0.58334
E6    E   0.35441  0.00000  0.50000
E7    E   0.35441  0.35441  0.66667
E8    E   0.38186  0.61814  0.91666
E9    E   0.38186  0.61814  0.91667
E10   E   0.38186  0.76372  0.25000
E11   E   0.38186  0.76372  0.25000
E12   E   0.61814  0.23628  0.75000
E13   E   0.61814  0.23628  0.75000
E14   E   0.61814  0.38186  0.41666
E15   E   0.61814  0.38186  0.41667
E16   E   0.64559  0.00000  0.00000
E17   E   0.64559  0.64559  0.16667
E18   E   0.64559  0.64559  0.16667
E19   E   0.76372  0.38186  0.08333
E20   E   0.76372  0.38186  0.08334
loop_
