data_uno_I4132  hall_number: 510, V_con: 4
_audit_creation_date              2025-03-05
_audit_creation_method            'MOFbuilder_1.0'
_symmetry_space_group_name_H-M    'P1'
_symmetry_Int_Tables_number       1
_symmetry_cell_setting            triclinic
loop_
_symmetry_equiv_pos_as_xyz
  x,y,z
_cell_length_a                    39.424
_cell_length_b                    39.424
_cell_length_c                    39.424
_cell_angle_alpha                 90.0
_cell_angle_beta                  90.0
_cell_angle_gamma                 90.0
loop_
_atom_site_label
_atom_site_type_symbol
_atom_site_fract_x
_atom_site_fract_y
_atom_site_fract_z
V1    V   0.02145  0.12500  0.22855
V2    V   0.02145  0.87500  0.27145
V3    V   0.02145  0.12500  0.22855
V4    V   0.02145  0.87500  0.27145
V5    V   0.12500  0.22855  0.02145
V6    V   0.12500  0.22855  0.02145
V7    V   0.12500  0.77145  0.47855
V8    V   0.12500  0.77145  0.47855
V9    V   0.22855  0.02145  0.12500
V10   V   0.22855  0.02145  0.12500
V11   V   0.22855  0.97855  0.37500
V12   V   0.27145  0.02145  0.87500
V13   V   0.27145  0.97855  0.62500
V14   V   0.27145  0.02145  0.87500
V15   V   0.27145  0.97855  0.62500
V16   V   0.37500  0.22855  0.97855
V17   V   0.37500  0.77145  0.52145
V18   V   0.47855  0.12500  0.77145
V19   V   0.47855  0.87500  0.72855
V20   V   0.47855  0.12500  0.77145
V21   V   0.47855  0.87500  0.72855
V22   V   0.52145  0.37500  0.77145
V23   V   0.52145  0.62500  0.72855
V24   V   0.62500  0.27145  0.97855
V25   V   0.62500  0.27145  0.97855
V26   V   0.62500  0.72855  0.52145
V27   V   0.72855  0.47855  0.87500
V28   V   0.72855  0.47855  0.87500
V29   V   0.72855  0.52145  0.62500
V30   V   0.77145  0.47855  0.12500
V31   V   0.77145  0.47855  0.12500
V32   V   0.77145  0.52145  0.37500
V33   V   0.87500  0.27145  0.02145
V34   V   0.87500  0.27145  0.02145
V35   V   0.87500  0.72855  0.47855
V36   V   0.87500  0.72855  0.47855
V37   V   0.97855  0.37500  0.22855
V38   V   0.97855  0.62500  0.27145
V39   V   0.97855  0.62500  0.27145
E1    E   0.00000  0.25000  0.02145
E2    E   0.00000  0.25000  0.22855
E3    E   0.00000  0.75000  0.27145
E4    E   0.00000  0.75000  0.47855
E5    E   0.02145  0.00000  0.25000
E6    E   0.07322  0.17678  0.12500
E7    E   0.07322  0.82322  0.37500
E8    E   0.07322  0.17678  0.12500
E9    E   0.07322  0.82322  0.37500
E10   E   0.12500  0.07322  0.17678
E11   E   0.12500  0.07322  0.17678
E12   E   0.12500  0.92678  0.32322
E13   E   0.12500  0.92678  0.32322
E14   E   0.17678  0.12500  0.07322
E15   E   0.17678  0.12500  0.07322
E16   E   0.17678  0.87500  0.42678
E17   E   0.22855  0.00000  0.25000
E18   E   0.25000  0.02145  0.00000
E19   E   0.25000  0.22855  0.00000
E20   E   0.25000  0.77145  0.50000
E21   E   0.25000  0.97855  0.50000
E22   E   0.27145  0.00000  0.75000
E23   E   0.32322  0.12500  0.92678
E24   E   0.32322  0.12500  0.92678
E25   E   0.32322  0.87500  0.57322
E26   E   0.32322  0.87500  0.57322
E27   E   0.37500  0.07322  0.82322
E28   E   0.37500  0.07322  0.82322
E29   E   0.37500  0.92678  0.67678
E30   E   0.37500  0.92678  0.67678
E31   E   0.42678  0.17678  0.87500
E32   E   0.42678  0.82322  0.62500
E33   E   0.42678  0.82322  0.62500
E34   E   0.47855  0.00000  0.75000
E35   E   0.50000  0.25000  0.77145
E36   E   0.50000  0.25000  0.97855
E37   E   0.50000  0.75000  0.52145
E38   E   0.50000  0.75000  0.72855
E39   E   0.52145  0.50000  0.75000
E40   E   0.57322  0.32322  0.87500
E41   E   0.57322  0.67678  0.62500
E42   E   0.57322  0.32322  0.87500
E43   E   0.57322  0.67678  0.62500
E44   E   0.62500  0.42678  0.82322
E45   E   0.62500  0.42678  0.82322
E46   E   0.62500  0.57322  0.67678
E47   E   0.62500  0.57322  0.67678
E48   E   0.67678  0.37500  0.92678
E49   E   0.67678  0.62500  0.57322
E50   E   0.67678  0.37500  0.92678
E51   E   0.67678  0.62500  0.57322
E52   E   0.72855  0.50000  0.75000
E53   E   0.75000  0.27145  0.00000
E54   E   0.75000  0.47855  0.00000
E55   E   0.75000  0.52145  0.50000
E56   E   0.75000  0.72855  0.50000
E57   E   0.77145  0.50000  0.25000
E58   E   0.82322  0.37500  0.07322
E59   E   0.82322  0.62500  0.42678
E60   E   0.82322  0.37500  0.07322
E61   E   0.82322  0.62500  0.42678
E62   E   0.87500  0.42678  0.17678
E63   E   0.87500  0.57322  0.32322
E64   E   0.87500  0.57322  0.32322
E65   E   0.92678  0.32322  0.12500
E66   E   0.92678  0.67678  0.37500
E67   E   0.92678  0.32322  0.12500
E68   E   0.92678  0.67678  0.37500
E69   E   0.97855  0.50000  0.25000
loop_
