data_unp_R32:H  hall_number: 445, V_con: 4
_audit_creation_date              2025-03-05
_audit_creation_method            'MOFbuilder_1.0'
_symmetry_space_group_name_H-M    'P1'
_symmetry_Int_Tables_number       1
_symmetry_cell_setting            triclinic
loop_
_symmetry_equiv_pos_as_xyz
  x,y,z
_cell_length_a                    33.996
_cell_length_b                    33.996
_cell_length_c                    44.624300000000005
_cell_angle_alpha                 90.0
_cell_angle_beta                  90.0
_cell_angle_gamma                 120.0
loop_
_atom_site_label
_atom_site_type_symbol
_atom_site_fract_x
_atom_site_fract_y
_atom_site_fract_z
V1    V   0.10554  0.19100  0.13397
V2    V   0.13397  0.10554  0.19100
V3    V   0.19100  0.13397  0.10554
V4    V   0.80900  0.89446  0.86603
V5    V   0.86603  0.80900  0.89446
V6    V   0.89446  0.86603  0.80900
E1    E   0.00000  0.16249  0.16249
E2    E   0.00000  0.83751  0.83751
E3    E   0.02852  0.09550  0.10554
E4    E   0.09550  0.10554  0.02852
E5    E   0.10554  0.02852  0.09550
E6    E   0.16249  0.00000  0.16249
E7    E   0.16249  0.16249  0.00000
E8    E   0.16667  0.33333  0.20513
E9    E   0.20513  0.16667  0.33333
E10   E   0.33333  0.20513  0.16667
E11   E   0.66667  0.83333  0.79487
E12   E   0.79487  0.66667  0.83333
E13   E   0.83333  0.79487  0.66667
E14   E   0.83751  0.00000  0.83751
E15   E   0.83751  0.83751  0.00000
E16   E   0.89446  0.90450  0.97148
E17   E   0.90450  0.97148  0.89446
E18   E   0.97148  0.89446  0.90450
loop_
