data_unv_I213  hall_number: 493, V_con: 4
_audit_creation_date              2025-03-05
_audit_creation_method            'MOFbuilder_1.0'
_symmetry_space_group_name_H-M    'P1'
_symmetry_Int_Tables_number       1
_symmetry_cell_setting            triclinic
loop_
_symmetry_equiv_pos_as_xyz
  x,y,z
_cell_length_a                    33.6073
_cell_length_b                    33.6073
_cell_length_c                    33.6073
_cell_angle_alpha                 90.0
_cell_angle_beta                  90.0
_cell_angle_gamma                 90.0
loop_
_atom_site_label
_atom_site_type_symbol
_atom_site_fract_x
_atom_site_fract_y
_atom_site_fract_z
V1    V   0.00640  0.10136  0.35891
V2    V   0.00640  0.89864  0.14109
V3    V   0.10136  0.35891  0.00640
V4    V   0.10136  0.64109  0.49360
V5    V   0.14109  0.00640  0.89864
V6    V   0.14109  0.99360  0.60136
V7    V   0.35891  0.00640  0.10136
V8    V   0.35891  0.99360  0.39864
V9    V   0.39864  0.35891  0.99360
V10   V   0.39864  0.64109  0.50640
V11   V   0.49360  0.10136  0.64109
V12   V   0.49360  0.89864  0.85891
V13   V   0.50640  0.39864  0.64109
V14   V   0.50640  0.60136  0.85891
V15   V   0.60136  0.14109  0.99360
V16   V   0.60136  0.85891  0.50640
V17   V   0.64109  0.49360  0.10136
V18   V   0.64109  0.50640  0.39864
V19   V   0.85891  0.49360  0.89864
V20   V   0.85891  0.50640  0.60136
V21   V   0.89864  0.14109  0.00640
V22   V   0.89864  0.85891  0.49360
V23   V   0.99360  0.39864  0.35891
V24   V   0.99360  0.60136  0.14109
E1    E   0.00000  0.25000  0.00640
E2    E   0.00000  0.25000  0.35891
E3    E   0.00000  0.75000  0.14109
E4    E   0.00000  0.75000  0.49360
E5    E   0.00640  0.00000  0.25000
E6    E   0.01987  0.07375  0.95252
E7    E   0.01987  0.92625  0.54748
E8    E   0.04748  0.48013  0.07375
E9    E   0.04748  0.51987  0.42625
E10   E   0.07375  0.04748  0.48013
E11   E   0.07375  0.95252  0.01987
E12   E   0.14109  0.00000  0.75000
E13   E   0.25000  0.00640  0.00000
E14   E   0.25000  0.35891  0.00000
E15   E   0.25000  0.64109  0.50000
E16   E   0.25000  0.99360  0.50000
E17   E   0.35891  0.00000  0.25000
E18   E   0.42625  0.04748  0.51987
E19   E   0.42625  0.95252  0.98013
E20   E   0.45252  0.48013  0.92625
E21   E   0.45252  0.51987  0.57375
E22   E   0.48013  0.07375  0.04748
E23   E   0.48013  0.92625  0.45252
E24   E   0.49360  0.00000  0.75000
E25   E   0.50000  0.25000  0.64109
E26   E   0.50000  0.25000  0.99360
E27   E   0.50000  0.75000  0.50640
E28   E   0.50000  0.75000  0.85891
E29   E   0.50640  0.50000  0.75000
E30   E   0.51987  0.42625  0.04748
E31   E   0.51987  0.57375  0.45252
E32   E   0.54748  0.01987  0.92625
E33   E   0.54748  0.98013  0.57375
E34   E   0.57375  0.45252  0.51987
E35   E   0.57375  0.54748  0.98013
E36   E   0.64109  0.50000  0.25000
E37   E   0.75000  0.14109  0.00000
E38   E   0.75000  0.49360  0.00000
E39   E   0.75000  0.50640  0.50000
E40   E   0.75000  0.85891  0.50000
E41   E   0.85891  0.50000  0.75000
E42   E   0.92625  0.45252  0.48013
E43   E   0.92625  0.54748  0.01987
E44   E   0.95252  0.01987  0.07375
E45   E   0.95252  0.98013  0.42625
E46   E   0.98013  0.42625  0.95252
E47   E   0.98013  0.57375  0.54748
E48   E   0.99360  0.50000  0.25000
loop_
