data_uoa_I41/acd:2  hall_number: 429, V_con: 4
_audit_creation_date              2025-03-05
_audit_creation_method            'MOFbuilder_1.0'
_symmetry_space_group_name_H-M    'P1'
_symmetry_Int_Tables_number       1
_symmetry_cell_setting            triclinic
loop_
_symmetry_equiv_pos_as_xyz
  x,y,z
_cell_length_a                    53.1766
_cell_length_b                    53.1766
_cell_length_c                    18.416900000000002
_cell_angle_alpha                 90.0
_cell_angle_beta                  90.0
_cell_angle_gamma                 90.0
loop_
_atom_site_label
_atom_site_type_symbol
_atom_site_fract_x
_atom_site_fract_y
_atom_site_fract_z
V1    V   0.03666  0.08310  0.07018
V2    V   0.03666  0.41690  0.57018
V3    V   0.03666  0.58310  0.92982
V4    V   0.03666  0.91690  0.42982
V5    V   0.16690  0.21334  0.17982
V6    V   0.16690  0.28666  0.67982
V7    V   0.16690  0.71334  0.82018
V8    V   0.16690  0.78666  0.32018
V9    V   0.33310  0.21334  0.82018
V10   V   0.33310  0.28666  0.32018
V11   V   0.33310  0.71334  0.17982
V12   V   0.33310  0.78666  0.67982
V13   V   0.46334  0.08310  0.92982
V14   V   0.46334  0.41690  0.42982
V15   V   0.46334  0.58310  0.07018
V16   V   0.46334  0.91690  0.57018
V17   V   0.53666  0.08310  0.42982
V18   V   0.53666  0.41690  0.92982
V19   V   0.53666  0.58310  0.57018
V20   V   0.53666  0.91690  0.07018
V21   V   0.66690  0.21334  0.32018
V22   V   0.66690  0.28666  0.82018
V23   V   0.66690  0.71334  0.67982
V24   V   0.66690  0.78666  0.17982
V25   V   0.83310  0.21334  0.67982
V26   V   0.83310  0.28666  0.17982
V27   V   0.83310  0.71334  0.32018
V28   V   0.83310  0.78666  0.82018
V29   V   0.96334  0.08310  0.57018
V30   V   0.96334  0.41690  0.07018
V31   V   0.96334  0.58310  0.42982
V32   V   0.96334  0.91690  0.92982
E1    E   0.00000  0.00000  0.00000
E2    E   0.00000  0.00000  0.50000
E3    E   0.00000  0.08310  0.32018
E4    E   0.00000  0.08310  0.82018
E5    E   0.00000  0.41690  0.32018
E6    E   0.00000  0.41690  0.82018
E7    E   0.00000  0.50000  0.00000
E8    E   0.00000  0.50000  0.50000
E9    E   0.00000  0.58310  0.17982
E10   E   0.00000  0.58310  0.67982
E11   E   0.00000  0.91690  0.17982
E12   E   0.00000  0.91690  0.67982
E13   E   0.10178  0.14822  0.12500
E14   E   0.10178  0.35178  0.62500
E15   E   0.10178  0.64822  0.87500
E16   E   0.10178  0.85178  0.37500
E17   E   0.10178  0.14822  0.12500
E18   E   0.10178  0.35178  0.62500
E19   E   0.10178  0.64822  0.87500
E20   E   0.10178  0.85178  0.37500
E21   E   0.16690  0.25000  0.42982
E22   E   0.16690  0.25000  0.92982
E23   E   0.16690  0.75000  0.07018
E24   E   0.16690  0.75000  0.57018
E25   E   0.25000  0.25000  0.25000
E26   E   0.25000  0.25000  0.75000
E27   E   0.25000  0.75000  0.25000
E28   E   0.25000  0.75000  0.75000
E29   E   0.33310  0.25000  0.07018
E30   E   0.33310  0.25000  0.57018
E31   E   0.33310  0.75000  0.42982
E32   E   0.33310  0.75000  0.92982
E33   E   0.39822  0.14822  0.87500
E34   E   0.39822  0.14822  0.87500
E35   E   0.39822  0.35178  0.37500
E36   E   0.39822  0.64822  0.12500
E37   E   0.39822  0.85178  0.62500
E38   E   0.50000  0.00000  0.00000
E39   E   0.50000  0.00000  0.50000
E40   E   0.50000  0.08310  0.17982
E41   E   0.50000  0.08310  0.67982
E42   E   0.50000  0.41690  0.17982
E43   E   0.50000  0.41690  0.67982
E44   E   0.50000  0.50000  0.00000
E45   E   0.50000  0.50000  0.50000
E46   E   0.50000  0.58310  0.32018
E47   E   0.50000  0.58310  0.82018
E48   E   0.50000  0.91690  0.32018
E49   E   0.50000  0.91690  0.82018
E50   E   0.60178  0.14822  0.37500
E51   E   0.60178  0.14822  0.37500
E52   E   0.60178  0.35178  0.87500
E53   E   0.60178  0.64822  0.62500
E54   E   0.60178  0.85178  0.12500
E55   E   0.66690  0.25000  0.07018
E56   E   0.66690  0.25000  0.57018
E57   E   0.66690  0.75000  0.42982
E58   E   0.66690  0.75000  0.92982
E59   E   0.75000  0.25000  0.25000
E60   E   0.75000  0.25000  0.75000
E61   E   0.75000  0.75000  0.25000
E62   E   0.75000  0.75000  0.75000
E63   E   0.83310  0.25000  0.42982
E64   E   0.83310  0.25000  0.92982
E65   E   0.83310  0.75000  0.07018
E66   E   0.83310  0.75000  0.57018
E67   E   0.89822  0.14822  0.62500
E68   E   0.89822  0.14822  0.62500
E69   E   0.89822  0.35178  0.12500
E70   E   0.89822  0.64822  0.37500
E71   E   0.89822  0.85178  0.87500
loop_
