data_uob_I4122  hall_number: 375, V_con: 4
_audit_creation_date              2025-03-05
_audit_creation_method            'MOFbuilder_1.0'
_symmetry_space_group_name_H-M    'P1'
_symmetry_Int_Tables_number       1
_symmetry_cell_setting            triclinic
loop_
_symmetry_equiv_pos_as_xyz
  x,y,z
_cell_length_a                    36.7175
_cell_length_b                    36.7175
_cell_length_c                    18.0349
_cell_angle_alpha                 90.0
_cell_angle_beta                  90.0
_cell_angle_gamma                 90.0
loop_
_atom_site_label
_atom_site_type_symbol
_atom_site_fract_x
_atom_site_fract_y
_atom_site_fract_z
V1    V   0.04521  0.12845  0.75000
V2    V   0.04521  0.37155  0.50000
V3    V   0.12845  0.04521  0.25000
V4    V   0.12845  0.45479  0.00000
V5    V   0.37155  0.04521  0.50000
V6    V   0.37155  0.45479  0.75000
V7    V   0.45479  0.12845  0.00000
V8    V   0.45479  0.37155  0.25000
V9    V   0.54521  0.62845  0.25000
V10   V   0.54521  0.87155  0.00000
V11   V   0.62845  0.54521  0.75000
V12   V   0.62845  0.95479  0.50000
V13   V   0.87155  0.54521  0.00000
V14   V   0.87155  0.95479  0.25000
V15   V   0.95479  0.62845  0.50000
V16   V   0.95479  0.87155  0.75000
E1    E   0.00000  0.00000  0.25000
E2    E   0.00000  0.00000  0.75000
E3    E   0.00000  0.50000  0.00000
E4    E   0.00000  0.50000  0.50000
E5    E   0.04521  0.25000  0.62500
E6    E   0.08683  0.08683  0.00000
E7    E   0.08683  0.08683  0.50000
E8    E   0.08683  0.41317  0.25000
E9    E   0.08683  0.41317  0.75000
E10   E   0.25000  0.04521  0.37500
E11   E   0.25000  0.45479  0.87500
E12   E   0.41317  0.08683  0.25000
E13   E   0.41317  0.08683  0.75000
E14   E   0.41317  0.41317  0.00000
E15   E   0.41317  0.41317  0.50000
E16   E   0.45479  0.25000  0.12500
E17   E   0.50000  0.00000  0.00000
E18   E   0.50000  0.00000  0.50000
E19   E   0.50000  0.50000  0.25000
E20   E   0.50000  0.50000  0.75000
E21   E   0.54521  0.75000  0.12500
E22   E   0.58683  0.58683  0.00000
E23   E   0.58683  0.58683  0.50000
E24   E   0.58683  0.91317  0.25000
E25   E   0.58683  0.91317  0.75000
E26   E   0.75000  0.54521  0.87500
E27   E   0.75000  0.95479  0.37500
E28   E   0.91317  0.58683  0.25000
E29   E   0.91317  0.58683  0.75000
E30   E   0.91317  0.91317  0.00000
E31   E   0.91317  0.91317  0.50000
E32   E   0.95479  0.75000  0.62500
loop_
