data_uoo_P6222  hall_number: 474, V_con: 4
_audit_creation_date              2025-03-05
_audit_creation_method            'MOFbuilder_1.0'
_symmetry_space_group_name_H-M    'P1'
_symmetry_Int_Tables_number       1
_symmetry_cell_setting            triclinic
loop_
_symmetry_equiv_pos_as_xyz
  x,y,z
_cell_length_a                    18.6079
_cell_length_b                    18.6079
_cell_length_c                    23.4793
_cell_angle_alpha                 90.0
_cell_angle_beta                  90.0
_cell_angle_gamma                 120.0
loop_
_atom_site_label
_atom_site_type_symbol
_atom_site_fract_x
_atom_site_fract_y
_atom_site_fract_z
V1    V   0.19313  0.38627  0.00000
V2    V   0.19313  0.80686  0.33333
V3    V   0.19314  0.38627  0.00000
V4    V   0.19314  0.80687  0.33333
V5    V   0.38627  0.19313  0.66667
V6    V   0.38627  0.19314  0.66667
V7    V   0.61373  0.80686  0.66667
V8    V   0.61373  0.80687  0.66667
V9    V   0.80686  0.19313  0.33333
V10   V   0.80686  0.61373  0.00000
V11   V   0.80687  0.19314  0.33333
V12   V   0.80687  0.61373  0.00000
E1    E   0.00000  0.28970  0.16666
E2    E   0.00000  0.28970  0.16667
E3    E   0.00000  0.50000  0.00000
E4    E   0.00000  0.50000  0.33333
E5    E   0.00000  0.71030  0.16666
E6    E   0.00000  0.71030  0.16667
E7    E   0.28970  0.00000  0.50000
E8    E   0.28970  0.00000  0.50000
E9    E   0.28970  0.28970  0.83333
E10   E   0.28970  0.28970  0.83334
E11   E   0.50000  0.00000  0.33333
E12   E   0.50000  0.00000  0.66667
E13   E   0.50000  0.50000  0.00000
E14   E   0.50000  0.50000  0.66667
E15   E   0.71030  0.00000  0.50000
E16   E   0.71030  0.00000  0.50000
E17   E   0.71030  0.71030  0.83333
E18   E   0.71030  0.71030  0.83334
loop_
