data_uoq_P6222  hall_number: 474, V_con: 4
_audit_creation_date              2025-03-05
_audit_creation_method            'MOFbuilder_1.0'
_symmetry_space_group_name_H-M    'P1'
_symmetry_Int_Tables_number       1
_symmetry_cell_setting            triclinic
loop_
_symmetry_equiv_pos_as_xyz
  x,y,z
_cell_length_a                    39.3505
_cell_length_b                    39.3505
_cell_length_c                    15.2597
_cell_angle_alpha                 90.0
_cell_angle_beta                  90.0
_cell_angle_gamma                 120.0
loop_
_atom_site_label
_atom_site_type_symbol
_atom_site_fract_x
_atom_site_fract_y
_atom_site_fract_z
V1    V   0.14189  0.44806  0.75000
V2    V   0.14189  0.69383  0.58333
V3    V   0.30617  0.44806  0.25000
V4    V   0.30617  0.85811  0.08333
V5    V   0.44806  0.14189  0.91667
V6    V   0.44806  0.30617  0.41667
V7    V   0.55194  0.69383  0.41667
V8    V   0.55194  0.85811  0.91667
V9    V   0.69383  0.14189  0.08333
V10   V   0.69383  0.55194  0.25000
V11   V   0.85811  0.30617  0.58333
V12   V   0.85811  0.55194  0.75000
E1    E   0.00000  0.37712  0.66666
E2    E   0.00000  0.37712  0.66667
E3    E   0.00000  0.62288  0.66666
E4    E   0.00000  0.62288  0.66667
E5    E   0.14190  0.57095  0.66667
E6    E   0.14190  0.57095  0.66666
E7    E   0.22403  0.44806  0.00000
E8    E   0.22403  0.44806  0.50000
E9    E   0.22403  0.77597  0.33333
E10   E   0.22403  0.77597  0.83333
E11   E   0.37712  0.00000  0.00000
E12   E   0.37712  0.00000  1.00000
E13   E   0.37712  0.37712  0.33333
E14   E   0.37712  0.37712  0.33334
E15   E   0.42905  0.57095  0.33333
E16   E   0.42905  0.85810  0.00000
E17   E   0.42905  0.57095  0.33334
E18   E   0.42905  0.85810  1.00000
E19   E   0.44806  0.22403  0.16667
E20   E   0.44806  0.22403  0.16667
E21   E   0.44806  0.22403  0.66667
E22   E   0.55194  0.77597  0.16667
E23   E   0.55194  0.77597  0.16667
E24   E   0.55194  0.77597  0.66667
E25   E   0.57095  0.14190  1.00000
E26   E   0.57095  0.42905  0.33334
E27   E   0.57095  0.14190  0.00000
E28   E   0.57095  0.42905  0.33333
E29   E   0.62288  0.00000  0.00000
E30   E   0.62288  0.00000  1.00000
E31   E   0.62288  0.62288  0.33333
E32   E   0.62288  0.62288  0.33334
E33   E   0.77597  0.22403  0.33333
E34   E   0.77597  0.22403  0.83333
E35   E   0.77597  0.55194  0.00000
E36   E   0.77597  0.55194  0.50000
E37   E   0.85810  0.42905  0.66666
E38   E   0.85810  0.42905  0.66667
loop_
