data_uou_Ccca:2  hall_number: 325, V_con: 4
_audit_creation_date              2025-03-05
_audit_creation_method            'MOFbuilder_1.0'
_symmetry_space_group_name_H-M    'P1'
_symmetry_Int_Tables_number       1
_symmetry_cell_setting            triclinic
loop_
_symmetry_equiv_pos_as_xyz
  x,y,z
_cell_length_a                    25.211199999999998
_cell_length_b                    27.7632
_cell_length_c                    34.6736
_cell_angle_alpha                 90.0
_cell_angle_beta                  90.0
_cell_angle_gamma                 90.0
loop_
_atom_site_label
_atom_site_type_symbol
_atom_site_fract_x
_atom_site_fract_y
_atom_site_fract_z
V1    V   0.07393  0.08288  0.11619
V2    V   0.07393  0.41712  0.61619
V3    V   0.07393  0.58288  0.88381
V4    V   0.07393  0.91712  0.38381
V5    V   0.42607  0.08288  0.38381
V6    V   0.42607  0.41712  0.88381
V7    V   0.42607  0.58288  0.61619
V8    V   0.42607  0.91712  0.11619
V9    V   0.57393  0.08288  0.88381
V10   V   0.57393  0.41712  0.38381
V11   V   0.57393  0.58288  0.11619
V12   V   0.57393  0.91712  0.61619
V13   V   0.92607  0.08288  0.61619
V14   V   0.92607  0.41712  0.11619
V15   V   0.92607  0.58288  0.38381
V16   V   0.92607  0.91712  0.88381
E1    E   0.00000  0.00000  0.00000
E2    E   0.00000  0.00000  0.50000
E3    E   0.00000  0.08288  0.25000
E4    E   0.00000  0.08288  0.75000
E5    E   0.00000  0.25000  0.11619
E6    E   0.00000  0.25000  0.61619
E7    E   0.00000  0.41712  0.25000
E8    E   0.00000  0.41712  0.75000
E9    E   0.00000  0.50000  0.00000
E10   E   0.00000  0.50000  0.50000
E11   E   0.00000  0.58288  0.25000
E12   E   0.00000  0.58288  0.75000
E13   E   0.00000  0.75000  0.38381
E14   E   0.00000  0.75000  0.88381
E15   E   0.00000  0.91712  0.25000
E16   E   0.00000  0.91712  0.75000
E17   E   0.25000  0.00000  0.11619
E18   E   0.25000  0.00000  0.38381
E19   E   0.25000  0.50000  0.61619
E20   E   0.25000  0.50000  0.88381
E21   E   0.50000  0.00000  0.00000
E22   E   0.50000  0.00000  0.50000
E23   E   0.50000  0.08288  0.25000
E24   E   0.50000  0.08288  0.75000
E25   E   0.50000  0.25000  0.38381
E26   E   0.50000  0.25000  0.88381
E27   E   0.50000  0.41712  0.25000
E28   E   0.50000  0.41712  0.75000
E29   E   0.50000  0.50000  0.00000
E30   E   0.50000  0.50000  0.50000
E31   E   0.50000  0.58288  0.25000
E32   E   0.50000  0.58288  0.75000
E33   E   0.50000  0.75000  0.11619
E34   E   0.50000  0.75000  0.61619
E35   E   0.50000  0.91712  0.25000
E36   E   0.50000  0.91712  0.75000
E37   E   0.75000  0.00000  0.61619
E38   E   0.75000  0.00000  0.88381
E39   E   0.75000  0.50000  0.11619
E40   E   0.75000  0.50000  0.38381
loop_
