data_upa_P42212  hall_number: 371, V_con: 4
_audit_creation_date              2025-03-05
_audit_creation_method            'MOFbuilder_1.0'
_symmetry_space_group_name_H-M    'P1'
_symmetry_Int_Tables_number       1
_symmetry_cell_setting            triclinic
loop_
_symmetry_equiv_pos_as_xyz
  x,y,z
_cell_length_a                    18.5476
_cell_length_b                    18.5476
_cell_length_c                    26.8583
_cell_angle_alpha                 90.0
_cell_angle_beta                  90.0
_cell_angle_gamma                 90.0
loop_
_atom_site_label
_atom_site_type_symbol
_atom_site_fract_x
_atom_site_fract_y
_atom_site_fract_z
V1    V   0.15568  0.22008  0.31651
V2    V   0.22008  0.15568  0.68349
V3    V   0.27992  0.65568  0.81651
V4    V   0.34432  0.72008  0.18349
V5    V   0.65568  0.27992  0.18349
V6    V   0.72008  0.34432  0.81651
V7    V   0.77992  0.84432  0.68349
V8    V   0.84432  0.77992  0.31651
E1    E   0.00000  0.00000  0.31651
E2    E   0.00000  0.00000  0.68349
E3    E   0.09432  0.75000  0.25000
E4    E   0.18788  0.18788  0.50000
E5    E   0.25000  0.40568  0.75000
E6    E   0.25000  0.90568  0.75000
E7    E   0.31212  0.68788  0.00000
E8    E   0.40568  0.25000  0.25000
E9    E   0.50000  0.50000  0.18349
E10   E   0.50000  0.50000  0.81651
E11   E   0.59432  0.75000  0.25000
E12   E   0.68788  0.31212  0.00000
E13   E   0.75000  0.09432  0.75000
E14   E   0.75000  0.59432  0.75000
E15   E   0.81212  0.81212  0.50000
E16   E   0.90568  0.25000  0.25000
loop_
