data_upb_I422  hall_number: 374, V_con: 4
_audit_creation_date              2025-03-05
_audit_creation_method            'MOFbuilder_1.0'
_symmetry_space_group_name_H-M    'P1'
_symmetry_Int_Tables_number       1
_symmetry_cell_setting            triclinic
loop_
_symmetry_equiv_pos_as_xyz
  x,y,z
_cell_length_a                    29.7119
_cell_length_b                    29.7119
_cell_length_c                    28.997700000000002
_cell_angle_alpha                 90.0
_cell_angle_beta                  90.0
_cell_angle_gamma                 90.0
loop_
_atom_site_label
_atom_site_type_symbol
_atom_site_fract_x
_atom_site_fract_y
_atom_site_fract_z
V1    V   0.08597  0.22192  0.35177
V2    V   0.08597  0.77808  0.64823
V3    V   0.22192  0.08597  0.64823
V4    V   0.22192  0.91403  0.35177
V5    V   0.27808  0.41403  0.14823
V6    V   0.27808  0.58597  0.85177
V7    V   0.41403  0.27808  0.85177
V8    V   0.41403  0.72192  0.14823
V9    V   0.58597  0.27808  0.14823
V10   V   0.58597  0.72192  0.85177
V11   V   0.72192  0.41403  0.85177
V12   V   0.72192  0.58597  0.14823
V13   V   0.77808  0.08597  0.35177
V14   V   0.77808  0.91403  0.64823
V15   V   0.91403  0.22192  0.64823
V16   V   0.91403  0.77808  0.35177
E1    E   0.00000  0.22192  0.50000
E2    E   0.00000  0.77808  0.50000
E3    E   0.06798  0.15394  0.64823
E4    E   0.06798  0.84606  0.35177
E5    E   0.15394  0.06798  0.35177
E6    E   0.15394  0.93202  0.64823
E7    E   0.18202  0.31798  0.25000
E8    E   0.18202  0.68202  0.75000
E9    E   0.18202  0.31798  0.25000
E10   E   0.18202  0.68202  0.75000
E11   E   0.22192  0.00000  0.50000
E12   E   0.27808  0.50000  0.00000
E13   E   0.31798  0.18202  0.75000
E14   E   0.31798  0.81798  0.25000
E15   E   0.31798  0.18202  0.75000
E16   E   0.31798  0.81798  0.25000
E17   E   0.34606  0.43202  0.85177
E18   E   0.34606  0.56798  0.14823
E19   E   0.43202  0.34606  0.14823
E20   E   0.43202  0.65394  0.85177
E21   E   0.50000  0.27808  0.00000
E22   E   0.50000  0.72192  0.00000
E23   E   0.56798  0.34606  0.85177
E24   E   0.56798  0.65394  0.14823
E25   E   0.65394  0.43202  0.14823
E26   E   0.65394  0.56798  0.85177
E27   E   0.68202  0.18202  0.25000
E28   E   0.68202  0.81798  0.75000
E29   E   0.68202  0.18202  0.25000
E30   E   0.68202  0.81798  0.75000
E31   E   0.72192  0.50000  0.00000
E32   E   0.77808  0.00000  0.50000
E33   E   0.81798  0.31798  0.75000
E34   E   0.81798  0.68202  0.25000
E35   E   0.81798  0.31798  0.75000
E36   E   0.81798  0.68202  0.25000
E37   E   0.84606  0.06798  0.64823
E38   E   0.84606  0.93202  0.35177
E39   E   0.93202  0.15394  0.35177
E40   E   0.93202  0.84606  0.64823
loop_
