data_utj_P42/nbc:2  hall_number: 415, V_con: 3
_audit_creation_date              2025-03-05
_audit_creation_method            'MOFbuilder_1.0'
_symmetry_space_group_name_H-M    'P1'
_symmetry_Int_Tables_number       1
_symmetry_cell_setting            triclinic
loop_
_symmetry_equiv_pos_as_xyz
  x,y,z
_cell_length_a                    36.3086
_cell_length_b                    36.3086
_cell_length_c                    25.456
_cell_angle_alpha                 90.0
_cell_angle_beta                  90.0
_cell_angle_gamma                 90.0
loop_
_atom_site_label
_atom_site_type_symbol
_atom_site_fract_x
_atom_site_fract_y
_atom_site_fract_z
V1    V   0.03837  0.12206  0.92736
V2    V   0.03837  0.37794  0.07264
V3    V   0.12206  0.03837  0.57264
V4    V   0.12206  0.46163  0.42736
V5    V   0.37794  0.03837  0.42736
V6    V   0.37794  0.46163  0.57264
V7    V   0.46163  0.12206  0.07264
V8    V   0.46163  0.37794  0.92736
V9    V   0.53837  0.62206  0.07264
V10   V   0.53837  0.87794  0.92736
V11   V   0.62206  0.53837  0.42736
V12   V   0.62206  0.96163  0.57264
V13   V   0.87794  0.53837  0.57264
V14   V   0.87794  0.96163  0.42736
V15   V   0.96163  0.62206  0.92736
V16   V   0.96163  0.87794  0.07264
E1    E   0.00000  0.00000  0.00000
E2    E   0.00000  0.00000  0.50000
E3    E   0.00000  0.50000  0.00000
E4    E   0.00000  0.50000  0.50000
E5    E   0.03837  0.25000  0.00000
E6    E   0.08021  0.08021  0.75000
E7    E   0.08021  0.41979  0.25000
E8    E   0.25000  0.03837  0.50000
E9    E   0.25000  0.46163  0.50000
E10   E   0.41979  0.08021  0.25000
E11   E   0.41979  0.41979  0.75000
E12   E   0.46163  0.25000  0.00000
E13   E   0.50000  0.00000  0.00000
E14   E   0.50000  0.00000  0.50000
E15   E   0.50000  0.50000  0.00000
E16   E   0.50000  0.50000  0.50000
E17   E   0.53837  0.75000  0.00000
E18   E   0.58021  0.58021  0.25000
E19   E   0.58021  0.91979  0.75000
E20   E   0.75000  0.53837  0.50000
E21   E   0.75000  0.96163  0.50000
E22   E   0.91979  0.58021  0.75000
E23   E   0.91979  0.91979  0.25000
E24   E   0.96163  0.75000  0.00000
loop_
