data_utk_P4122  hall_number: 368, V_con: 3
_audit_creation_date              2025-03-05
_audit_creation_method            'MOFbuilder_1.0'
_symmetry_space_group_name_H-M    'P1'
_symmetry_Int_Tables_number       1
_symmetry_cell_setting            triclinic
loop_
_symmetry_equiv_pos_as_xyz
  x,y,z
_cell_length_a                    28.188499999999998
_cell_length_b                    28.188499999999998
_cell_length_c                    17.5512
_cell_angle_alpha                 90.0
_cell_angle_beta                  90.0
_cell_angle_gamma                 90.0
loop_
_atom_site_label
_atom_site_type_symbol
_atom_site_fract_x
_atom_site_fract_y
_atom_site_fract_z
V1    V   0.11748  0.32409  0.21344
V2    V   0.11748  0.67591  0.28656
V3    V   0.32409  0.11748  0.53656
V4    V   0.32409  0.88252  0.96344
V5    V   0.67591  0.11748  0.46344
V6    V   0.67591  0.88252  0.03656
V7    V   0.88252  0.32409  0.78656
V8    V   0.88252  0.67591  0.71344
E1    E   0.00000  0.32409  0.00000
E2    E   0.00000  0.67591  0.50000
E3    E   0.11748  0.50000  0.25000
E4    E   0.22079  0.22079  0.37500
E5    E   0.22079  0.77921  0.12500
E6    E   0.32409  0.00000  0.75000
E7    E   0.50000  0.11748  0.50000
E8    E   0.50000  0.88252  0.00000
E9    E   0.67591  0.00000  0.25000
E10   E   0.77921  0.22079  0.62500
E11   E   0.77921  0.77921  0.87500
E12   E   0.88252  0.50000  0.75000
loop_
