data_utn_I41/acd:2  hall_number: 429, V_con: 3
_audit_creation_date              2025-03-05
_audit_creation_method            'MOFbuilder_1.0'
_symmetry_space_group_name_H-M    'P1'
_symmetry_Int_Tables_number       1
_symmetry_cell_setting            triclinic
loop_
_symmetry_equiv_pos_as_xyz
  x,y,z
_cell_length_a                    50.812799999999996
_cell_length_b                    50.812799999999996
_cell_length_c                    18.9728
_cell_angle_alpha                 90.0
_cell_angle_beta                  90.0
_cell_angle_gamma                 90.0
loop_
_atom_site_label
_atom_site_type_symbol
_atom_site_fract_x
_atom_site_fract_y
_atom_site_fract_z
V1    V   0.08758  0.04450  0.98504
V2    V   0.08758  0.45550  0.48504
V3    V   0.08758  0.54450  0.01496
V4    V   0.08758  0.95550  0.51496
V5    V   0.20550  0.16242  0.26496
V6    V   0.20550  0.33758  0.76496
V7    V   0.20550  0.66242  0.73504
V8    V   0.20550  0.83758  0.23504
V9    V   0.29450  0.16242  0.73504
V10   V   0.29450  0.33758  0.23504
V11   V   0.29450  0.66242  0.26496
V12   V   0.29450  0.83758  0.76496
V13   V   0.41242  0.04450  0.01496
V14   V   0.41242  0.45550  0.51496
V15   V   0.41242  0.54450  0.98504
V16   V   0.41242  0.95550  0.48504
V17   V   0.58758  0.04450  0.51496
V18   V   0.58758  0.45550  0.01496
V19   V   0.58758  0.54450  0.48504
V20   V   0.58758  0.95550  0.98504
V21   V   0.70550  0.16242  0.23504
V22   V   0.70550  0.33758  0.73504
V23   V   0.70550  0.66242  0.76496
V24   V   0.70550  0.83758  0.26496
V25   V   0.79450  0.16242  0.76496
V26   V   0.79450  0.33758  0.26496
V27   V   0.79450  0.66242  0.23504
V28   V   0.79450  0.83758  0.73504
V29   V   0.91242  0.04450  0.48504
V30   V   0.91242  0.45550  0.98504
V31   V   0.91242  0.54450  0.51496
V32   V   0.91242  0.95550  0.01496
E1    E   0.00000  0.00000  0.00000
E2    E   0.00000  0.00000  0.50000
E3    E   0.00000  0.50000  0.00000
E4    E   0.00000  0.50000  0.50000
E5    E   0.08758  0.00000  0.75000
E6    E   0.08758  0.50000  0.25000
E7    E   0.14654  0.10346  0.12500
E8    E   0.14654  0.39654  0.62500
E9    E   0.14654  0.60346  0.87500
E10   E   0.14654  0.89654  0.37500
E11   E   0.25000  0.16242  0.50000
E12   E   0.25000  0.25000  0.25000
E13   E   0.25000  0.25000  0.75000
E14   E   0.25000  0.33758  0.00000
E15   E   0.25000  0.66242  0.50000
E16   E   0.25000  0.75000  0.25000
E17   E   0.25000  0.75000  0.75000
E18   E   0.25000  0.83758  0.00000
E19   E   0.35346  0.10346  0.87500
E20   E   0.35346  0.39654  0.37500
E21   E   0.35346  0.60346  0.12500
E22   E   0.35346  0.89654  0.62500
E23   E   0.41242  0.00000  0.25000
E24   E   0.41242  0.50000  0.75000
E25   E   0.50000  0.00000  0.00000
E26   E   0.50000  0.00000  0.50000
E27   E   0.50000  0.50000  0.00000
E28   E   0.50000  0.50000  0.50000
E29   E   0.58758  0.00000  0.75000
E30   E   0.58758  0.50000  0.25000
E31   E   0.64654  0.10346  0.37500
E32   E   0.64654  0.39654  0.87500
E33   E   0.64654  0.60346  0.62500
E34   E   0.64654  0.89654  0.12500
E35   E   0.75000  0.16242  0.00000
E36   E   0.75000  0.25000  0.25000
E37   E   0.75000  0.25000  0.75000
E38   E   0.75000  0.33758  0.50000
E39   E   0.75000  0.66242  0.00000
E40   E   0.75000  0.75000  0.25000
E41   E   0.75000  0.75000  0.75000
E42   E   0.75000  0.83758  0.50000
E43   E   0.85346  0.10346  0.62500
E44   E   0.85346  0.39654  0.12500
E45   E   0.85346  0.60346  0.37500
E46   E   0.85346  0.89654  0.87500
E47   E   0.91242  0.00000  0.25000
E48   E   0.91242  0.50000  0.75000
loop_
