data_uto_I41/acd:2  hall_number: 429, V_con: 3
_audit_creation_date              2025-03-05
_audit_creation_method            'MOFbuilder_1.0'
_symmetry_space_group_name_H-M    'P1'
_symmetry_Int_Tables_number       1
_symmetry_cell_setting            triclinic
loop_
_symmetry_equiv_pos_as_xyz
  x,y,z
_cell_length_a                    36.3063
_cell_length_b                    36.3063
_cell_length_c                    50.3609
_cell_angle_alpha                 90.0
_cell_angle_beta                  90.0
_cell_angle_gamma                 90.0
loop_
_atom_site_label
_atom_site_type_symbol
_atom_site_fract_x
_atom_site_fract_y
_atom_site_fract_z
V1    V   0.12278  0.03330  0.53802
V2    V   0.12278  0.46670  0.03802
V3    V   0.12278  0.53330  0.46198
V4    V   0.12278  0.96670  0.96198
V5    V   0.21670  0.12722  0.71198
V6    V   0.21670  0.37278  0.21198
V7    V   0.21670  0.62722  0.28802
V8    V   0.21670  0.87278  0.78802
V9    V   0.28330  0.12722  0.28802
V10   V   0.28330  0.37278  0.78802
V11   V   0.28330  0.62722  0.71198
V12   V   0.28330  0.87278  0.21198
V13   V   0.37722  0.03330  0.46198
V14   V   0.37722  0.46670  0.96198
V15   V   0.37722  0.53330  0.53802
V16   V   0.37722  0.96670  0.03802
V17   V   0.62278  0.03330  0.96198
V18   V   0.62278  0.46670  0.46198
V19   V   0.62278  0.53330  0.03802
V20   V   0.62278  0.96670  0.53802
V21   V   0.71670  0.12722  0.78802
V22   V   0.71670  0.37278  0.28802
V23   V   0.71670  0.62722  0.21198
V24   V   0.71670  0.87278  0.71198
V25   V   0.78330  0.12722  0.21198
V26   V   0.78330  0.37278  0.71198
V27   V   0.78330  0.62722  0.78802
V28   V   0.78330  0.87278  0.28802
V29   V   0.87722  0.03330  0.03802
V30   V   0.87722  0.46670  0.53802
V31   V   0.87722  0.53330  0.96198
V32   V   0.87722  0.96670  0.46198
E1    E   0.00000  0.00000  0.00000
E2    E   0.00000  0.00000  0.50000
E3    E   0.00000  0.50000  0.00000
E4    E   0.00000  0.50000  0.50000
E5    E   0.16974  0.08026  0.62500
E6    E   0.16974  0.41974  0.12500
E7    E   0.16974  0.58026  0.37500
E8    E   0.16974  0.91974  0.87500
E9    E   0.21670  0.00000  0.75000
E10   E   0.21670  0.50000  0.25000
E11   E   0.25000  0.03330  0.50000
E12   E   0.25000  0.25000  0.25000
E13   E   0.25000  0.25000  0.75000
E14   E   0.25000  0.46670  0.00000
E15   E   0.25000  0.53330  0.50000
E16   E   0.25000  0.75000  0.25000
E17   E   0.25000  0.75000  0.75000
E18   E   0.25000  0.96670  0.00000
E19   E   0.28330  0.00000  0.25000
E20   E   0.28330  0.50000  0.75000
E21   E   0.33026  0.08026  0.37500
E22   E   0.33026  0.41974  0.87500
E23   E   0.33026  0.58026  0.62500
E24   E   0.33026  0.91974  0.12500
E25   E   0.50000  0.00000  0.00000
E26   E   0.50000  0.00000  0.50000
E27   E   0.50000  0.50000  0.00000
E28   E   0.50000  0.50000  0.50000
E29   E   0.66974  0.08026  0.87500
E30   E   0.66974  0.41974  0.37500
E31   E   0.66974  0.58026  0.12500
E32   E   0.66974  0.91974  0.62500
E33   E   0.71670  0.00000  0.75000
E34   E   0.71670  0.50000  0.25000
E35   E   0.75000  0.03330  0.00000
E36   E   0.75000  0.25000  0.25000
E37   E   0.75000  0.25000  0.75000
E38   E   0.75000  0.46670  0.50000
E39   E   0.75000  0.53330  0.00000
E40   E   0.75000  0.75000  0.25000
E41   E   0.75000  0.75000  0.75000
E42   E   0.75000  0.96670  0.50000
E43   E   0.78330  0.00000  0.25000
E44   E   0.78330  0.50000  0.75000
E45   E   0.83026  0.08026  0.12500
E46   E   0.83026  0.41974  0.62500
E47   E   0.83026  0.58026  0.87500
E48   E   0.83026  0.91974  0.37500
loop_
