data_uty_Fd-3m:2  hall_number: 526, V_con: 9
_audit_creation_date              2025-03-05
_audit_creation_method            'MOFbuilder_1.0'
_symmetry_space_group_name_H-M    'P1'
_symmetry_Int_Tables_number       1
_symmetry_cell_setting            triclinic
loop_
_symmetry_equiv_pos_as_xyz
  x,y,z
_cell_length_a                    28.5283
_cell_length_b                    28.5283
_cell_length_c                    28.5283
_cell_angle_alpha                 90.0
_cell_angle_beta                  90.0
_cell_angle_gamma                 90.0
loop_
_atom_site_label
_atom_site_type_symbol
_atom_site_fract_x
_atom_site_fract_y
_atom_site_fract_z
V1    V   0.00325  0.00325  0.74675
V2    V   0.00325  0.24675  0.50325
V3    V   0.00325  0.50325  0.24675
V4    V   0.00325  0.74675  0.00325
V5    V   0.24675  0.00325  0.50325
V6    V   0.24675  0.24675  0.74675
V7    V   0.24675  0.50325  0.00325
V8    V   0.24675  0.74675  0.24675
V9    V   0.25325  0.25325  0.25325
V10   V   0.25325  0.49675  0.49675
V11   V   0.25325  0.75325  0.75325
V12   V   0.25325  0.99675  0.99675
V13   V   0.49675  0.25325  0.49675
V14   V   0.49675  0.49675  0.25325
V15   V   0.49675  0.75325  0.99675
V16   V   0.49675  0.99675  0.75325
V17   V   0.50325  0.00325  0.24675
V18   V   0.50325  0.24675  0.00325
V19   V   0.50325  0.50325  0.74675
V20   V   0.50325  0.74675  0.50325
V21   V   0.74675  0.00325  0.00325
V22   V   0.74675  0.24675  0.24675
V23   V   0.74675  0.50325  0.50325
V24   V   0.74675  0.74675  0.74675
V25   V   0.75325  0.25325  0.75325
V26   V   0.75325  0.49675  0.99675
V27   V   0.75325  0.75325  0.25325
V28   V   0.75325  0.99675  0.49675
V29   V   0.99675  0.25325  0.99675
V30   V   0.99675  0.49675  0.75325
V31   V   0.99675  0.75325  0.49675
V32   V   0.99675  0.99675  0.25325
E1    E   0.00000  0.12175  0.37825
E2    E   0.00000  0.12175  0.37825
E3    E   0.00000  0.12825  0.87175
E4    E   0.00000  0.12825  0.87175
E5    E   0.00000  0.37175  0.62825
E6    E   0.00000  0.37825  0.12175
E7    E   0.00000  0.37825  0.12175
E8    E   0.00000  0.62175  0.87825
E9    E   0.00000  0.62825  0.37175
E10   E   0.00000  0.87175  0.12825
E11   E   0.00000  0.87175  0.12825
E12   E   0.00000  0.87825  0.62175
E13   E   0.00325  0.12500  0.62500
E14   E   0.00325  0.62500  0.12500
E15   E   0.12175  0.00000  0.37825
E16   E   0.12175  0.25000  0.87175
E17   E   0.12175  0.37175  0.75000
E18   E   0.12175  0.37825  0.00000
E19   E   0.12175  0.50000  0.87825
E20   E   0.12175  0.75000  0.37175
E21   E   0.12175  0.87175  0.25000
E22   E   0.12175  0.87825  0.50000
E23   E   0.12175  0.00000  0.37825
E24   E   0.12175  0.25000  0.87175
E25   E   0.12175  0.37175  0.75000
E26   E   0.12175  0.37825  0.00000
E27   E   0.12175  0.50000  0.87825
E28   E   0.12175  0.75000  0.37175
E29   E   0.12175  0.87175  0.25000
E30   E   0.12175  0.87825  0.50000
E31   E   0.12500  0.00325  0.62500
E32   E   0.12500  0.12500  0.50325
E33   E   0.12500  0.12500  0.74675
E34   E   0.12500  0.24675  0.62500
E35   E   0.12500  0.50325  0.12500
E36   E   0.12500  0.62500  0.00325
E37   E   0.12500  0.62500  0.24675
E38   E   0.12500  0.74675  0.12500
E39   E   0.12825  0.00000  0.87175
E40   E   0.12825  0.25000  0.37825
E41   E   0.12825  0.37175  0.50000
E42   E   0.12825  0.37825  0.25000
E43   E   0.12825  0.50000  0.37175
E44   E   0.12825  0.75000  0.87825
E45   E   0.12825  0.87175  0.00000
E46   E   0.12825  0.87825  0.75000
E47   E   0.12825  0.00000  0.87175
E48   E   0.12825  0.25000  0.37825
E49   E   0.12825  0.37175  0.50000
E50   E   0.12825  0.37825  0.25000
E51   E   0.12825  0.50000  0.37175
E52   E   0.12825  0.75000  0.87825
E53   E   0.12825  0.87175  0.00000
E54   E   0.12825  0.87825  0.75000
E55   E   0.24675  0.12500  0.62500
E56   E   0.24675  0.62500  0.12500
E57   E   0.25000  0.12175  0.87175
E58   E   0.25000  0.12175  0.87175
E59   E   0.25000  0.12825  0.37825
E60   E   0.25000  0.12825  0.37825
E61   E   0.25000  0.37175  0.62175
E62   E   0.25000  0.37825  0.12825
E63   E   0.25000  0.37825  0.12825
E64   E   0.25000  0.62175  0.37175
E65   E   0.25000  0.62825  0.87825
E66   E   0.25000  0.87175  0.12175
E67   E   0.25000  0.87175  0.12175
E68   E   0.25000  0.87825  0.62825
E69   E   0.25325  0.37500  0.37500
E70   E   0.25325  0.87500  0.87500
E71   E   0.37175  0.00000  0.62825
E72   E   0.37175  0.12175  0.75000
E73   E   0.37175  0.12175  0.75000
E74   E   0.37175  0.12825  0.50000
E75   E   0.37175  0.12825  0.50000
E76   E   0.37175  0.25000  0.62175
E77   E   0.37175  0.50000  0.12825
E78   E   0.37175  0.50000  0.12825
E79   E   0.37175  0.62175  0.25000
E80   E   0.37175  0.62825  0.00000
E81   E   0.37175  0.75000  0.12175
E82   E   0.37175  0.75000  0.12175
E83   E   0.37500  0.25325  0.37500
E84   E   0.37500  0.37500  0.25325
E85   E   0.37500  0.37500  0.49675
E86   E   0.37500  0.49675  0.37500
E87   E   0.37500  0.75325  0.87500
E88   E   0.37500  0.87500  0.75325
E89   E   0.37500  0.87500  0.99675
E90   E   0.37500  0.99675  0.87500
E91   E   0.37825  0.00000  0.12175
E92   E   0.37825  0.00000  0.12175
E93   E   0.37825  0.12175  0.00000
E94   E   0.37825  0.12175  0.00000
E95   E   0.37825  0.12825  0.25000
E96   E   0.37825  0.12825  0.25000
E97   E   0.37825  0.25000  0.12825
E98   E   0.37825  0.25000  0.12825
E99   E   0.37825  0.50000  0.62175
E100  E   0.37825  0.62175  0.50000
E101  E   0.37825  0.62825  0.75000
E102  E   0.37825  0.75000  0.62825
E103  E   0.49675  0.37500  0.37500
E104  E   0.49675  0.87500  0.87500
E105  E   0.50000  0.12175  0.87825
E106  E   0.50000  0.12175  0.87825
E107  E   0.50000  0.12825  0.37175
E108  E   0.50000  0.12825  0.37175
E109  E   0.50000  0.37175  0.12825
E110  E   0.50000  0.37175  0.12825
E111  E   0.50000  0.37825  0.62175
E112  E   0.50000  0.62175  0.37825
E113  E   0.50000  0.62825  0.87175
E114  E   0.50000  0.87175  0.62825
E115  E   0.50000  0.87825  0.12175
E116  E   0.50000  0.87825  0.12175
E117  E   0.50325  0.12500  0.12500
E118  E   0.50325  0.62500  0.62500
E119  E   0.62175  0.00000  0.87825
E120  E   0.62175  0.25000  0.37175
E121  E   0.62175  0.37175  0.25000
E122  E   0.62175  0.37825  0.50000
E123  E   0.62175  0.50000  0.37825
E124  E   0.62175  0.75000  0.87175
E125  E   0.62175  0.87175  0.75000
E126  E   0.62175  0.87825  0.00000
E127  E   0.62500  0.00325  0.12500
E128  E   0.62500  0.12500  0.00325
E129  E   0.62500  0.12500  0.24675
E130  E   0.62500  0.24675  0.12500
E131  E   0.62500  0.50325  0.62500
E132  E   0.62500  0.62500  0.50325
E133  E   0.62500  0.62500  0.74675
E134  E   0.62500  0.74675  0.62500
E135  E   0.62825  0.00000  0.37175
E136  E   0.62825  0.25000  0.87825
E137  E   0.62825  0.37175  0.00000
E138  E   0.62825  0.37825  0.75000
E139  E   0.62825  0.50000  0.87175
E140  E   0.62825  0.75000  0.37825
E141  E   0.62825  0.87175  0.50000
E142  E   0.62825  0.87825  0.25000
E143  E   0.74675  0.12500  0.12500
E144  E   0.74675  0.62500  0.62500
E145  E   0.75000  0.12175  0.37175
E146  E   0.75000  0.12175  0.37175
E147  E   0.75000  0.12825  0.87825
E148  E   0.75000  0.12825  0.87825
E149  E   0.75000  0.37175  0.12175
E150  E   0.75000  0.37175  0.12175
E151  E   0.75000  0.37825  0.62825
E152  E   0.75000  0.62175  0.87175
E153  E   0.75000  0.62825  0.37825
E154  E   0.75000  0.87175  0.62175
E155  E   0.75000  0.87825  0.12825
E156  E   0.75000  0.87825  0.12825
E157  E   0.75325  0.37500  0.87500
E158  E   0.75325  0.87500  0.37500
E159  E   0.87175  0.00000  0.12825
E160  E   0.87175  0.00000  0.12825
E161  E   0.87175  0.12175  0.25000
E162  E   0.87175  0.12175  0.25000
E163  E   0.87175  0.12825  0.00000
E164  E   0.87175  0.12825  0.00000
E165  E   0.87175  0.25000  0.12175
E166  E   0.87175  0.25000  0.12175
E167  E   0.87175  0.50000  0.62825
E168  E   0.87175  0.62175  0.75000
E169  E   0.87175  0.62825  0.50000
E170  E   0.87175  0.75000  0.62175
E171  E   0.87500  0.25325  0.87500
E172  E   0.87500  0.37500  0.75325
E173  E   0.87500  0.37500  0.99675
E174  E   0.87500  0.49675  0.87500
E175  E   0.87500  0.75325  0.37500
E176  E   0.87500  0.87500  0.25325
E177  E   0.87500  0.87500  0.49675
E178  E   0.87500  0.99675  0.37500
E179  E   0.87825  0.00000  0.62175
E180  E   0.87825  0.12175  0.50000
E181  E   0.87825  0.12175  0.50000
E182  E   0.87825  0.12825  0.75000
E183  E   0.87825  0.12825  0.75000
E184  E   0.87825  0.25000  0.62825
E185  E   0.87825  0.50000  0.12175
E186  E   0.87825  0.50000  0.12175
E187  E   0.87825  0.62175  0.00000
E188  E   0.87825  0.62825  0.25000
E189  E   0.87825  0.75000  0.12825
E190  E   0.87825  0.75000  0.12825
E191  E   0.99675  0.37500  0.87500
E192  E   0.99675  0.87500  0.37500
loop_
