data_utz_I4132  hall_number: 510, V_con: 9
_audit_creation_date              2025-03-05
_audit_creation_method            'MOFbuilder_1.0'
_symmetry_space_group_name_H-M    'P1'
_symmetry_Int_Tables_number       1
_symmetry_cell_setting            triclinic
loop_
_symmetry_equiv_pos_as_xyz
  x,y,z
_cell_length_a                    22.535500000000003
_cell_length_b                    22.535500000000003
_cell_length_c                    22.535500000000003
_cell_angle_alpha                 90.0
_cell_angle_beta                  90.0
_cell_angle_gamma                 90.0
loop_
_atom_site_label
_atom_site_type_symbol
_atom_site_fract_x
_atom_site_fract_y
_atom_site_fract_z
V1    V   0.01936  0.01936  0.01936
V2    V   0.01936  0.98064  0.48064
V3    V   0.23064  0.23064  0.23064
V4    V   0.23064  0.76936  0.26936
V5    V   0.26936  0.23064  0.76936
V6    V   0.26936  0.76936  0.73064
V7    V   0.48064  0.01936  0.98064
V8    V   0.48064  0.98064  0.51936
V9    V   0.51936  0.48064  0.98064
V10   V   0.51936  0.51936  0.51936
V11   V   0.73064  0.26936  0.76936
V12   V   0.73064  0.73064  0.73064
V13   V   0.76936  0.26936  0.23064
V14   V   0.76936  0.73064  0.26936
V15   V   0.98064  0.48064  0.01936
V16   V   0.98064  0.51936  0.48064
E1    E   0.00000  0.25000  0.01936
E2    E   0.00000  0.25000  0.23064
E3    E   0.00000  0.75000  0.26936
E4    E   0.00000  0.75000  0.48064
E5    E   0.01936  0.00000  0.25000
E6    E   0.10564  0.35564  0.12500
E7    E   0.10564  0.37500  0.35564
E8    E   0.10564  0.62500  0.14436
E9    E   0.10564  0.64436  0.37500
E10   E   0.10564  0.35564  0.12500
E11   E   0.10564  0.37500  0.35564
E12   E   0.10564  0.62500  0.14436
E13   E   0.10564  0.64436  0.37500
E14   E   0.12500  0.10564  0.35564
E15   E   0.12500  0.10564  0.35564
E16   E   0.12500  0.35564  0.89436
E17   E   0.12500  0.64436  0.60564
E18   E   0.12500  0.89436  0.14436
E19   E   0.14436  0.10564  0.62500
E20   E   0.14436  0.10564  0.62500
E21   E   0.14436  0.12500  0.89436
E22   E   0.14436  0.87500  0.60564
E23   E   0.14436  0.89436  0.87500
E24   E   0.23064  0.00000  0.25000
E25   E   0.25000  0.01936  0.00000
E26   E   0.25000  0.23064  0.00000
E27   E   0.25000  0.76936  0.50000
E28   E   0.25000  0.98064  0.50000
E29   E   0.26936  0.00000  0.75000
E30   E   0.35564  0.10564  0.37500
E31   E   0.35564  0.10564  0.37500
E32   E   0.35564  0.12500  0.10564
E33   E   0.35564  0.12500  0.10564
E34   E   0.35564  0.87500  0.39436
E35   E   0.35564  0.89436  0.12500
E36   E   0.37500  0.10564  0.64436
E37   E   0.37500  0.10564  0.64436
E38   E   0.37500  0.35564  0.10564
E39   E   0.37500  0.35564  0.10564
E40   E   0.37500  0.64436  0.39436
E41   E   0.37500  0.89436  0.85564
E42   E   0.39436  0.35564  0.87500
E43   E   0.39436  0.37500  0.64436
E44   E   0.39436  0.62500  0.85564
E45   E   0.39436  0.64436  0.62500
E46   E   0.48064  0.00000  0.75000
E47   E   0.50000  0.25000  0.76936
E48   E   0.50000  0.25000  0.98064
E49   E   0.50000  0.75000  0.51936
E50   E   0.50000  0.75000  0.73064
E51   E   0.51936  0.50000  0.75000
E52   E   0.60564  0.12500  0.64436
E53   E   0.60564  0.14436  0.87500
E54   E   0.60564  0.85564  0.62500
E55   E   0.60564  0.87500  0.85564
E56   E   0.62500  0.14436  0.10564
E57   E   0.62500  0.14436  0.10564
E58   E   0.62500  0.39436  0.64436
E59   E   0.62500  0.60564  0.85564
E60   E   0.62500  0.85564  0.39436
E61   E   0.64436  0.37500  0.10564
E62   E   0.64436  0.37500  0.10564
E63   E   0.64436  0.39436  0.37500
E64   E   0.64436  0.60564  0.12500
E65   E   0.64436  0.62500  0.39436
E66   E   0.73064  0.50000  0.75000
E67   E   0.75000  0.26936  0.00000
E68   E   0.75000  0.48064  0.00000
E69   E   0.75000  0.51936  0.50000
E70   E   0.75000  0.73064  0.50000
E71   E   0.76936  0.50000  0.25000
E72   E   0.85564  0.37500  0.89436
E73   E   0.85564  0.39436  0.62500
E74   E   0.85564  0.60564  0.87500
E75   E   0.85564  0.62500  0.60564
E76   E   0.87500  0.14436  0.89436
E77   E   0.87500  0.39436  0.35564
E78   E   0.87500  0.60564  0.14436
E79   E   0.87500  0.85564  0.60564
E80   E   0.89436  0.12500  0.35564
E81   E   0.89436  0.14436  0.12500
E82   E   0.89436  0.85564  0.37500
E83   E   0.89436  0.87500  0.14436
E84   E   0.98064  0.50000  0.25000
loop_
