data_vbe_Ccca:2  hall_number: 325, V_con: 5
_audit_creation_date              2025-03-05
_audit_creation_method            'MOFbuilder_1.0'
_symmetry_space_group_name_H-M    'P1'
_symmetry_Int_Tables_number       1
_symmetry_cell_setting            triclinic
loop_
_symmetry_equiv_pos_as_xyz
  x,y,z
_cell_length_a                    32.210100000000004
_cell_length_b                    22.717999999999996
_cell_length_c                    25.3876
_cell_angle_alpha                 90.0
_cell_angle_beta                  90.0
_cell_angle_gamma                 90.0
loop_
_atom_site_label
_atom_site_type_symbol
_atom_site_fract_x
_atom_site_fract_y
_atom_site_fract_z
V1    V   0.10976  0.09438  0.38926
V2    V   0.10976  0.40562  0.88926
V3    V   0.10976  0.59438  0.61074
V4    V   0.10976  0.90562  0.11074
V5    V   0.39024  0.09438  0.11074
V6    V   0.39024  0.40562  0.61074
V7    V   0.39024  0.59438  0.88926
V8    V   0.39024  0.90562  0.38926
V9    V   0.60976  0.09438  0.61074
V10   V   0.60976  0.40562  0.11074
V11   V   0.60976  0.59438  0.38926
V12   V   0.60976  0.90562  0.88926
V13   V   0.89024  0.09438  0.88926
V14   V   0.89024  0.40562  0.38926
V15   V   0.89024  0.59438  0.11074
V16   V   0.89024  0.90562  0.61074
E1    E   0.00000  0.00000  0.00000
E2    E   0.00000  0.00000  0.50000
E3    E   0.00000  0.09438  0.25000
E4    E   0.00000  0.09438  0.75000
E5    E   0.00000  0.25000  0.38926
E6    E   0.00000  0.25000  0.88926
E7    E   0.00000  0.40562  0.25000
E8    E   0.00000  0.40562  0.75000
E9    E   0.00000  0.50000  0.00000
E10   E   0.00000  0.50000  0.50000
E11   E   0.00000  0.59438  0.25000
E12   E   0.00000  0.59438  0.75000
E13   E   0.00000  0.75000  0.11074
E14   E   0.00000  0.75000  0.61074
E15   E   0.00000  0.90562  0.25000
E16   E   0.00000  0.90562  0.75000
E17   E   0.10976  0.25000  0.25000
E18   E   0.10976  0.25000  0.75000
E19   E   0.10976  0.75000  0.25000
E20   E   0.10976  0.75000  0.75000
E21   E   0.25000  0.00000  0.11074
E22   E   0.25000  0.00000  0.38926
E23   E   0.25000  0.50000  0.61074
E24   E   0.25000  0.50000  0.88926
E25   E   0.39024  0.25000  0.25000
E26   E   0.39024  0.25000  0.75000
E27   E   0.39024  0.75000  0.25000
E28   E   0.39024  0.75000  0.75000
E29   E   0.50000  0.00000  0.00000
E30   E   0.50000  0.00000  0.50000
E31   E   0.50000  0.09438  0.25000
E32   E   0.50000  0.09438  0.75000
E33   E   0.50000  0.25000  0.11074
E34   E   0.50000  0.25000  0.61074
E35   E   0.50000  0.40562  0.25000
E36   E   0.50000  0.40562  0.75000
E37   E   0.50000  0.50000  0.00000
E38   E   0.50000  0.50000  0.50000
E39   E   0.50000  0.59438  0.25000
E40   E   0.50000  0.59438  0.75000
E41   E   0.50000  0.75000  0.38926
E42   E   0.50000  0.75000  0.88926
E43   E   0.50000  0.90562  0.25000
E44   E   0.50000  0.90562  0.75000
E45   E   0.60976  0.25000  0.25000
E46   E   0.60976  0.25000  0.75000
E47   E   0.60976  0.75000  0.25000
E48   E   0.60976  0.75000  0.75000
E49   E   0.75000  0.00000  0.61074
E50   E   0.75000  0.00000  0.88926
E51   E   0.75000  0.50000  0.11074
E52   E   0.75000  0.50000  0.38926
E53   E   0.89024  0.25000  0.25000
E54   E   0.89024  0.25000  0.75000
E55   E   0.89024  0.75000  0.25000
E56   E   0.89024  0.75000  0.75000
loop_
