data_vbf_Fdd2  hall_number: 212, V_con: 5
_audit_creation_date              2025-03-05
_audit_creation_method            'MOFbuilder_1.0'
_symmetry_space_group_name_H-M    'P1'
_symmetry_Int_Tables_number       1
_symmetry_cell_setting            triclinic
loop_
_symmetry_equiv_pos_as_xyz
  x,y,z
_cell_length_a                    24.448900000000002
_cell_length_b                    46.857499999999995
_cell_length_c                    15.989500000000001
_cell_angle_alpha                 90.0
_cell_angle_beta                  90.0
_cell_angle_gamma                 90.0
loop_
_atom_site_label
_atom_site_type_symbol
_atom_site_fract_x
_atom_site_fract_y
_atom_site_fract_z
V1    V   0.07154  0.30211  0.00000
V2    V   0.07154  0.80211  0.50000
V3    V   0.17846  0.05211  0.75000
V4    V   0.17846  0.55211  0.25000
V5    V   0.32154  0.44789  0.75000
V6    V   0.32154  0.94789  0.25000
V7    V   0.42846  0.19789  0.00000
V8    V   0.42846  0.69789  0.50000
V9    V   0.57154  0.30211  0.50000
V10   V   0.57154  0.80211  0.00000
V11   V   0.67846  0.05211  0.25000
V12   V   0.67846  0.55211  0.75000
V13   V   0.82154  0.44789  0.25000
V14   V   0.82154  0.94789  0.75000
V15   V   0.92846  0.19789  0.50000
V16   V   0.92846  0.69789  0.00000
E1    E   0.00000  0.00000  0.75000
E2    E   0.00000  0.25000  0.25000
E3    E   0.00000  0.25000  0.75000
E4    E   0.00000  0.50000  0.25000
E5    E   0.00000  0.75000  0.25000
E6    E   0.00000  0.75000  0.75000
E7    E   0.05346  0.12500  0.62500
E8    E   0.05346  0.62500  0.12500
E9    E   0.19654  0.37500  0.87500
E10   E   0.19654  0.87500  0.37500
E11   E   0.25000  0.00000  0.00000
E12   E   0.25000  0.00000  0.50000
E13   E   0.25000  0.25000  0.00000
E14   E   0.25000  0.50000  0.00000
E15   E   0.25000  0.50000  0.50000
E16   E   0.25000  0.75000  0.50000
E17   E   0.30346  0.12500  0.87500
E18   E   0.30346  0.62500  0.37500
E19   E   0.44654  0.37500  0.62500
E20   E   0.44654  0.87500  0.12500
E21   E   0.50000  0.00000  0.25000
E22   E   0.50000  0.25000  0.25000
E23   E   0.50000  0.25000  0.75000
E24   E   0.50000  0.50000  0.75000
E25   E   0.50000  0.75000  0.25000
E26   E   0.50000  0.75000  0.75000
E27   E   0.55346  0.12500  0.12500
E28   E   0.55346  0.62500  0.62500
E29   E   0.69654  0.37500  0.37500
E30   E   0.69654  0.87500  0.87500
E31   E   0.75000  0.00000  0.00000
E32   E   0.75000  0.00000  0.50000
E33   E   0.75000  0.25000  0.50000
E34   E   0.75000  0.50000  0.00000
E35   E   0.75000  0.50000  0.50000
E36   E   0.75000  0.75000  0.00000
E37   E   0.80346  0.12500  0.37500
E38   E   0.80346  0.62500  0.87500
E39   E   0.94654  0.37500  0.12500
E40   E   0.94654  0.87500  0.62500
loop_
