data_vbi_Fddd:2  hall_number: 336, V_con: 5
_audit_creation_date              2025-03-05
_audit_creation_method            'MOFbuilder_1.0'
_symmetry_space_group_name_H-M    'P1'
_symmetry_Int_Tables_number       1
_symmetry_cell_setting            triclinic
loop_
_symmetry_equiv_pos_as_xyz
  x,y,z
_cell_length_a                    25.479300000000002
_cell_length_b                    27.7216
_cell_length_c                    52.8323
_cell_angle_alpha                 90.0
_cell_angle_beta                  90.0
_cell_angle_gamma                 90.0
loop_
_atom_site_label
_atom_site_type_symbol
_atom_site_fract_x
_atom_site_fract_y
_atom_site_fract_z
V1    V   0.06795  0.34213  0.96805
V2    V   0.06795  0.40787  0.78195
V3    V   0.06795  0.84213  0.46805
V4    V   0.06795  0.90787  0.28195
V5    V   0.18205  0.34213  0.28195
V6    V   0.18205  0.40787  0.46805
V7    V   0.18205  0.84213  0.78195
V8    V   0.18205  0.90787  0.96805
V9    V   0.31795  0.09213  0.53195
V10   V   0.31795  0.15787  0.71805
V11   V   0.31795  0.59213  0.03195
V12   V   0.31795  0.65787  0.21805
V13   V   0.43205  0.09213  0.21805
V14   V   0.43205  0.15787  0.03195
V15   V   0.43205  0.59213  0.71805
V16   V   0.43205  0.65787  0.53195
V17   V   0.56795  0.34213  0.46805
V18   V   0.56795  0.40787  0.28195
V19   V   0.56795  0.84213  0.96805
V20   V   0.56795  0.90787  0.78195
V21   V   0.68205  0.34213  0.78195
V22   V   0.68205  0.40787  0.96805
V23   V   0.68205  0.84213  0.28195
V24   V   0.68205  0.90787  0.46805
V25   V   0.81795  0.09213  0.03195
V26   V   0.81795  0.15787  0.21805
V27   V   0.81795  0.59213  0.53195
V28   V   0.81795  0.65787  0.71805
V29   V   0.93205  0.09213  0.71805
V30   V   0.93205  0.15787  0.53195
V31   V   0.93205  0.59213  0.21805
V32   V   0.93205  0.65787  0.03195
E1    E   0.00000  0.00000  0.50000
E2    E   0.00000  0.25000  0.75000
E3    E   0.00000  0.50000  0.00000
E4    E   0.00000  0.75000  0.25000
E5    E   0.05705  0.28287  0.50000
E6    E   0.05705  0.46713  0.25000
E7    E   0.05705  0.78287  0.00000
E8    E   0.05705  0.96713  0.75000
E9    E   0.06795  0.37500  0.87500
E10   E   0.06795  0.87500  0.37500
E11   E   0.12500  0.12500  0.53195
E12   E   0.12500  0.12500  0.71805
E13   E   0.12500  0.62500  0.03195
E14   E   0.12500  0.62500  0.21805
E15   E   0.18205  0.37500  0.37500
E16   E   0.18205  0.87500  0.87500
E17   E   0.19295  0.28287  0.75000
E18   E   0.19295  0.46713  0.00000
E19   E   0.19295  0.78287  0.25000
E20   E   0.19295  0.96713  0.50000
E21   E   0.25000  0.00000  0.75000
E22   E   0.25000  0.25000  0.50000
E23   E   0.25000  0.50000  0.25000
E24   E   0.25000  0.75000  0.00000
E25   E   0.30705  0.03287  0.00000
E26   E   0.30705  0.21713  0.25000
E27   E   0.30705  0.53287  0.50000
E28   E   0.30705  0.71713  0.75000
E29   E   0.31795  0.12500  0.62500
E30   E   0.31795  0.62500  0.12500
E31   E   0.37500  0.37500  0.28195
E32   E   0.37500  0.37500  0.46805
E33   E   0.37500  0.87500  0.78195
E34   E   0.37500  0.87500  0.96805
E35   E   0.43205  0.12500  0.12500
E36   E   0.43205  0.62500  0.62500
E37   E   0.44295  0.03287  0.75000
E38   E   0.44295  0.21713  0.50000
E39   E   0.44295  0.53287  0.25000
E40   E   0.44295  0.71713  0.00000
E41   E   0.50000  0.00000  0.00000
E42   E   0.50000  0.25000  0.25000
E43   E   0.50000  0.50000  0.50000
E44   E   0.50000  0.75000  0.75000
E45   E   0.55705  0.28287  0.00000
E46   E   0.55705  0.46713  0.75000
E47   E   0.55705  0.78287  0.50000
E48   E   0.55705  0.96713  0.25000
E49   E   0.56795  0.37500  0.37500
E50   E   0.56795  0.87500  0.87500
E51   E   0.62500  0.12500  0.03195
E52   E   0.62500  0.12500  0.21805
E53   E   0.62500  0.62500  0.53195
E54   E   0.62500  0.62500  0.71805
E55   E   0.68205  0.37500  0.87500
E56   E   0.68205  0.87500  0.37500
E57   E   0.69295  0.28287  0.25000
E58   E   0.69295  0.46713  0.50000
E59   E   0.69295  0.78287  0.75000
E60   E   0.69295  0.96713  0.00000
E61   E   0.75000  0.00000  0.25000
E62   E   0.75000  0.25000  0.00000
E63   E   0.75000  0.50000  0.75000
E64   E   0.75000  0.75000  0.50000
E65   E   0.80705  0.03287  0.50000
E66   E   0.80705  0.21713  0.75000
E67   E   0.80705  0.53287  0.00000
E68   E   0.80705  0.71713  0.25000
E69   E   0.81795  0.12500  0.12500
E70   E   0.81795  0.62500  0.62500
E71   E   0.87500  0.37500  0.78195
E72   E   0.87500  0.37500  0.96805
E73   E   0.87500  0.87500  0.28195
E74   E   0.87500  0.87500  0.46805
E75   E   0.93205  0.12500  0.62500
E76   E   0.93205  0.62500  0.12500
E77   E   0.94295  0.03287  0.25000
E78   E   0.94295  0.21713  0.00000
E79   E   0.94295  0.53287  0.75000
E80   E   0.94295  0.71713  0.50000
loop_
