data_vbk_Cmca  hall_number: 304, V_con: 5
_audit_creation_date              2025-03-05
_audit_creation_method            'MOFbuilder_1.0'
_symmetry_space_group_name_H-M    'P1'
_symmetry_Int_Tables_number       1
_symmetry_cell_setting            triclinic
loop_
_symmetry_equiv_pos_as_xyz
  x,y,z
_cell_length_a                    37.849
_cell_length_b                    29.983800000000002
_cell_length_c                    16.429000000000002
_cell_angle_alpha                 90.0
_cell_angle_beta                  90.0
_cell_angle_gamma                 90.0
loop_
_atom_site_label
_atom_site_type_symbol
_atom_site_fract_x
_atom_site_fract_y
_atom_site_fract_z
V1    V   0.13210  0.15490  0.11270
V2    V   0.13210  0.34510  0.61270
V3    V   0.13210  0.65490  0.38730
V4    V   0.13210  0.84510  0.88730
V5    V   0.36790  0.15490  0.38730
V6    V   0.36790  0.34510  0.88730
V7    V   0.36790  0.65490  0.11270
V8    V   0.36790  0.84510  0.61270
V9    V   0.63210  0.15490  0.38730
V10   V   0.63210  0.34510  0.88730
V11   V   0.63210  0.65490  0.11270
V12   V   0.63210  0.84510  0.61270
V13   V   0.86790  0.15490  0.11270
V14   V   0.86790  0.34510  0.61270
V15   V   0.86790  0.65490  0.38730
V16   V   0.86790  0.84510  0.88730
E1    E   0.00000  0.15490  0.11270
E2    E   0.00000  0.34510  0.61270
E3    E   0.00000  0.65490  0.38730
E4    E   0.00000  0.84510  0.88730
E5    E   0.13210  0.00000  0.00000
E6    E   0.13210  0.25000  0.36270
E7    E   0.13210  0.25000  0.86270
E8    E   0.13210  0.50000  0.50000
E9    E   0.13210  0.75000  0.13730
E10   E   0.13210  0.75000  0.63730
E11   E   0.25000  0.15490  0.25000
E12   E   0.25000  0.34510  0.75000
E13   E   0.25000  0.65490  0.25000
E14   E   0.25000  0.84510  0.75000
E15   E   0.36790  0.00000  0.50000
E16   E   0.36790  0.25000  0.13730
E17   E   0.36790  0.25000  0.63730
E18   E   0.36790  0.50000  0.00000
E19   E   0.36790  0.75000  0.36270
E20   E   0.36790  0.75000  0.86270
E21   E   0.50000  0.15490  0.38730
E22   E   0.50000  0.34510  0.88730
E23   E   0.50000  0.65490  0.11270
E24   E   0.50000  0.84510  0.61270
E25   E   0.63210  0.00000  0.50000
E26   E   0.63210  0.25000  0.13730
E27   E   0.63210  0.25000  0.63730
E28   E   0.63210  0.50000  0.00000
E29   E   0.63210  0.75000  0.36270
E30   E   0.63210  0.75000  0.86270
E31   E   0.75000  0.15490  0.25000
E32   E   0.75000  0.34510  0.75000
E33   E   0.75000  0.65490  0.25000
E34   E   0.75000  0.84510  0.75000
E35   E   0.86790  0.00000  0.00000
E36   E   0.86790  0.25000  0.36270
E37   E   0.86790  0.25000  0.86270
E38   E   0.86790  0.50000  0.50000
E39   E   0.86790  0.75000  0.13730
E40   E   0.86790  0.75000  0.63730
loop_
