data_vbl_Fddd:2  hall_number: 336, V_con: 6
_audit_creation_date              2025-03-05
_audit_creation_method            'MOFbuilder_1.0'
_symmetry_space_group_name_H-M    'P1'
_symmetry_Int_Tables_number       1
_symmetry_cell_setting            triclinic
loop_
_symmetry_equiv_pos_as_xyz
  x,y,z
_cell_length_a                    55.0638
_cell_length_b                    23.6789
_cell_length_c                    27.6222
_cell_angle_alpha                 90.0
_cell_angle_beta                  90.0
_cell_angle_gamma                 90.0
loop_
_atom_site_label
_atom_site_type_symbol
_atom_site_fract_x
_atom_site_fract_y
_atom_site_fract_z
V1    V   0.03774  0.06663  0.29896
V2    V   0.03774  0.18337  0.95104
V3    V   0.03774  0.56663  0.79896
V4    V   0.03774  0.68337  0.45104
V5    V   0.21226  0.06663  0.95104
V6    V   0.21226  0.18337  0.29896
V7    V   0.21226  0.56663  0.45104
V8    V   0.21226  0.68337  0.79896
V9    V   0.28774  0.31663  0.70104
V10   V   0.28774  0.43337  0.04896
V11   V   0.28774  0.81663  0.20104
V12   V   0.28774  0.93337  0.54896
V13   V   0.46226  0.31663  0.04896
V14   V   0.46226  0.43337  0.70104
V15   V   0.46226  0.81663  0.54896
V16   V   0.46226  0.93337  0.20104
V17   V   0.53774  0.06663  0.79896
V18   V   0.53774  0.18337  0.45104
V19   V   0.53774  0.56663  0.29896
V20   V   0.53774  0.68337  0.95104
V21   V   0.71226  0.06663  0.45104
V22   V   0.71226  0.18337  0.79896
V23   V   0.71226  0.56663  0.95104
V24   V   0.71226  0.68337  0.29896
V25   V   0.78774  0.31663  0.20104
V26   V   0.78774  0.43337  0.54896
V27   V   0.78774  0.81663  0.70104
V28   V   0.78774  0.93337  0.04896
V29   V   0.96226  0.31663  0.54896
V30   V   0.96226  0.43337  0.20104
V31   V   0.96226  0.81663  0.04896
V32   V   0.96226  0.93337  0.70104
E1    E   0.00000  0.00000  0.00000
E2    E   0.00000  0.05837  0.82604
E3    E   0.00000  0.19163  0.42396
E4    E   0.00000  0.25000  0.25000
E5    E   0.00000  0.30837  0.07604
E6    E   0.00000  0.44163  0.67396
E7    E   0.00000  0.50000  0.50000
E8    E   0.00000  0.55837  0.32604
E9    E   0.00000  0.69163  0.92396
E10   E   0.00000  0.75000  0.75000
E11   E   0.00000  0.80837  0.57604
E12   E   0.00000  0.94163  0.17396
E13   E   0.03774  0.12500  0.12500
E14   E   0.03774  0.37500  0.87500
E15   E   0.03774  0.62500  0.62500
E16   E   0.03774  0.87500  0.37500
E17   E   0.12500  0.12500  0.29896
E18   E   0.12500  0.12500  0.95104
E19   E   0.12500  0.62500  0.45104
E20   E   0.12500  0.62500  0.79896
E21   E   0.21226  0.12500  0.12500
E22   E   0.21226  0.37500  0.37500
E23   E   0.21226  0.62500  0.62500
E24   E   0.21226  0.87500  0.87500
E25   E   0.25000  0.00000  0.25000
E26   E   0.25000  0.05837  0.42396
E27   E   0.25000  0.19163  0.82604
E28   E   0.25000  0.25000  0.00000
E29   E   0.25000  0.30837  0.17396
E30   E   0.25000  0.44163  0.57604
E31   E   0.25000  0.50000  0.75000
E32   E   0.25000  0.55837  0.92396
E33   E   0.25000  0.69163  0.32604
E34   E   0.25000  0.75000  0.50000
E35   E   0.25000  0.80837  0.67396
E36   E   0.25000  0.94163  0.07604
E37   E   0.28774  0.12500  0.62500
E38   E   0.28774  0.37500  0.87500
E39   E   0.28774  0.62500  0.12500
E40   E   0.28774  0.87500  0.37500
E41   E   0.37500  0.37500  0.04896
E42   E   0.37500  0.37500  0.70104
E43   E   0.37500  0.87500  0.20104
E44   E   0.37500  0.87500  0.54896
E45   E   0.46226  0.12500  0.12500
E46   E   0.46226  0.37500  0.87500
E47   E   0.46226  0.62500  0.62500
E48   E   0.46226  0.87500  0.37500
E49   E   0.50000  0.00000  0.50000
E50   E   0.50000  0.05837  0.32604
E51   E   0.50000  0.19163  0.92396
E52   E   0.50000  0.25000  0.75000
E53   E   0.50000  0.30837  0.57604
E54   E   0.50000  0.44163  0.17396
E55   E   0.50000  0.50000  0.00000
E56   E   0.50000  0.55837  0.82604
E57   E   0.50000  0.69163  0.42396
E58   E   0.50000  0.75000  0.25000
E59   E   0.50000  0.80837  0.07604
E60   E   0.50000  0.94163  0.67396
E61   E   0.53774  0.12500  0.62500
E62   E   0.53774  0.37500  0.37500
E63   E   0.53774  0.62500  0.12500
E64   E   0.53774  0.87500  0.87500
E65   E   0.62500  0.12500  0.45104
E66   E   0.62500  0.12500  0.79896
E67   E   0.62500  0.62500  0.29896
E68   E   0.62500  0.62500  0.95104
E69   E   0.71226  0.12500  0.62500
E70   E   0.71226  0.37500  0.87500
E71   E   0.71226  0.62500  0.12500
E72   E   0.71226  0.87500  0.37500
E73   E   0.75000  0.00000  0.75000
E74   E   0.75000  0.05837  0.92396
E75   E   0.75000  0.19163  0.32604
E76   E   0.75000  0.25000  0.50000
E77   E   0.75000  0.30837  0.67396
E78   E   0.75000  0.44163  0.07604
E79   E   0.75000  0.50000  0.25000
E80   E   0.75000  0.55837  0.42396
E81   E   0.75000  0.69163  0.82604
E82   E   0.75000  0.75000  0.00000
E83   E   0.75000  0.80837  0.17396
E84   E   0.75000  0.94163  0.57604
E85   E   0.78774  0.12500  0.12500
E86   E   0.78774  0.37500  0.37500
E87   E   0.78774  0.62500  0.62500
E88   E   0.78774  0.87500  0.87500
E89   E   0.87500  0.37500  0.20104
E90   E   0.87500  0.37500  0.54896
E91   E   0.87500  0.87500  0.04896
E92   E   0.87500  0.87500  0.70104
E93   E   0.96226  0.12500  0.62500
E94   E   0.96226  0.37500  0.37500
E95   E   0.96226  0.62500  0.12500
E96   E   0.96226  0.87500  0.87500
loop_
