data_vbp_Ibca  hall_number: 341, V_con: 6
_audit_creation_date              2025-03-05
_audit_creation_method            'MOFbuilder_1.0'
_symmetry_space_group_name_H-M    'P1'
_symmetry_Int_Tables_number       1
_symmetry_cell_setting            triclinic
loop_
_symmetry_equiv_pos_as_xyz
  x,y,z
_cell_length_a                    17.9308
_cell_length_b                    27.6762
_cell_length_c                    34.5315
_cell_angle_alpha                 90.0
_cell_angle_beta                  90.0
_cell_angle_gamma                 90.0
loop_
_atom_site_label
_atom_site_type_symbol
_atom_site_fract_x
_atom_site_fract_y
_atom_site_fract_z
V1    V   0.09448  0.08003  0.87981
V2    V   0.09448  0.41997  0.37981
V3    V   0.09448  0.58003  0.12019
V4    V   0.09448  0.91997  0.62019
V5    V   0.40552  0.08003  0.12019
V6    V   0.40552  0.41997  0.62019
V7    V   0.40552  0.58003  0.87981
V8    V   0.40552  0.91997  0.37981
V9    V   0.59448  0.08003  0.62019
V10   V   0.59448  0.41997  0.12019
V11   V   0.59448  0.58003  0.37981
V12   V   0.59448  0.91997  0.87981
V13   V   0.90552  0.08003  0.37981
V14   V   0.90552  0.41997  0.87981
V15   V   0.90552  0.58003  0.62019
V16   V   0.90552  0.91997  0.12019
E1    E   0.00000  0.00000  0.00000
E2    E   0.00000  0.00000  0.50000
E3    E   0.00000  0.25000  0.37981
E4    E   0.00000  0.25000  0.87981
E5    E   0.00000  0.50000  0.00000
E6    E   0.00000  0.50000  0.50000
E7    E   0.00000  0.75000  0.12019
E8    E   0.00000  0.75000  0.62019
E9    E   0.09448  0.00000  0.75000
E10   E   0.09448  0.50000  0.25000
E11   E   0.15552  0.00000  0.12019
E12   E   0.15552  0.00000  0.37981
E13   E   0.15552  0.50000  0.62019
E14   E   0.15552  0.50000  0.87981
E15   E   0.25000  0.08003  0.00000
E16   E   0.25000  0.41997  0.50000
E17   E   0.25000  0.58003  0.00000
E18   E   0.25000  0.91997  0.50000
E19   E   0.34448  0.00000  0.62019
E20   E   0.34448  0.00000  0.87981
E21   E   0.34448  0.50000  0.12019
E22   E   0.34448  0.50000  0.37981
E23   E   0.40552  0.00000  0.25000
E24   E   0.40552  0.50000  0.75000
E25   E   0.50000  0.00000  0.00000
E26   E   0.50000  0.00000  0.50000
E27   E   0.50000  0.25000  0.12019
E28   E   0.50000  0.25000  0.62019
E29   E   0.50000  0.50000  0.00000
E30   E   0.50000  0.50000  0.50000
E31   E   0.50000  0.75000  0.37981
E32   E   0.50000  0.75000  0.87981
E33   E   0.59448  0.00000  0.75000
E34   E   0.59448  0.50000  0.25000
E35   E   0.65552  0.00000  0.12019
E36   E   0.65552  0.00000  0.37981
E37   E   0.65552  0.50000  0.62019
E38   E   0.65552  0.50000  0.87981
E39   E   0.75000  0.08003  0.50000
E40   E   0.75000  0.41997  0.00000
E41   E   0.75000  0.58003  0.50000
E42   E   0.75000  0.91997  0.00000
E43   E   0.84448  0.00000  0.62019
E44   E   0.84448  0.00000  0.87981
E45   E   0.84448  0.50000  0.12019
E46   E   0.84448  0.50000  0.37981
E47   E   0.90552  0.00000  0.25000
E48   E   0.90552  0.50000  0.75000
loop_
