data_vbr_Cmca  hall_number: 304, V_con: 6
_audit_creation_date              2025-03-05
_audit_creation_method            'MOFbuilder_1.0'
_symmetry_space_group_name_H-M    'P1'
_symmetry_Int_Tables_number       1
_symmetry_cell_setting            triclinic
loop_
_symmetry_equiv_pos_as_xyz
  x,y,z
_cell_length_a                    27.4207
_cell_length_b                    18.572400000000002
_cell_length_c                    35.4257
_cell_angle_alpha                 90.0
_cell_angle_beta                  90.0
_cell_angle_gamma                 90.0
loop_
_atom_site_label
_atom_site_type_symbol
_atom_site_fract_x
_atom_site_fract_y
_atom_site_fract_z
V1    V   0.18234  0.14496  0.38107
V2    V   0.18234  0.35504  0.88107
V3    V   0.18234  0.64496  0.11893
V4    V   0.18234  0.85504  0.61893
V5    V   0.31766  0.14496  0.11893
V6    V   0.31766  0.35504  0.61893
V7    V   0.31766  0.64496  0.38107
V8    V   0.31766  0.85504  0.88107
V9    V   0.68234  0.14496  0.11893
V10   V   0.68234  0.35504  0.61893
V11   V   0.68234  0.64496  0.38107
V12   V   0.68234  0.85504  0.88107
V13   V   0.81766  0.14496  0.38107
V14   V   0.81766  0.35504  0.88107
V15   V   0.81766  0.64496  0.11893
V16   V   0.81766  0.85504  0.61893
E1    E   0.00000  0.14496  0.38107
E2    E   0.00000  0.35504  0.88107
E3    E   0.00000  0.64496  0.11893
E4    E   0.00000  0.85504  0.61893
E5    E   0.18234  0.00000  0.50000
E6    E   0.18234  0.50000  0.00000
E7    E   0.25000  0.10504  0.61893
E8    E   0.25000  0.10504  0.88107
E9    E   0.25000  0.14496  0.25000
E10   E   0.25000  0.25000  0.00000
E11   E   0.25000  0.25000  0.50000
E12   E   0.25000  0.35504  0.75000
E13   E   0.25000  0.39496  0.11893
E14   E   0.25000  0.39496  0.38107
E15   E   0.25000  0.60504  0.61893
E16   E   0.25000  0.60504  0.88107
E17   E   0.25000  0.64496  0.25000
E18   E   0.25000  0.75000  0.00000
E19   E   0.25000  0.75000  0.50000
E20   E   0.25000  0.85504  0.75000
E21   E   0.25000  0.89496  0.11893
E22   E   0.25000  0.89496  0.38107
E23   E   0.31766  0.00000  0.00000
E24   E   0.31766  0.50000  0.50000
E25   E   0.50000  0.14496  0.11893
E26   E   0.50000  0.35504  0.61893
E27   E   0.50000  0.64496  0.38107
E28   E   0.50000  0.85504  0.88107
E29   E   0.68234  0.00000  0.00000
E30   E   0.68234  0.50000  0.50000
E31   E   0.75000  0.10504  0.61893
E32   E   0.75000  0.10504  0.88107
E33   E   0.75000  0.14496  0.25000
E34   E   0.75000  0.25000  0.00000
E35   E   0.75000  0.25000  0.50000
E36   E   0.75000  0.35504  0.75000
E37   E   0.75000  0.39496  0.11893
E38   E   0.75000  0.39496  0.38107
E39   E   0.75000  0.60504  0.61893
E40   E   0.75000  0.60504  0.88107
E41   E   0.75000  0.64496  0.25000
E42   E   0.75000  0.75000  0.00000
E43   E   0.75000  0.75000  0.50000
E44   E   0.75000  0.85504  0.75000
E45   E   0.75000  0.89496  0.11893
E46   E   0.75000  0.89496  0.38107
E47   E   0.81766  0.00000  0.50000
E48   E   0.81766  0.50000  0.00000
loop_
