data_vbu_Pccn  hall_number: 266, V_con: 6
_audit_creation_date              2025-03-05
_audit_creation_method            'MOFbuilder_1.0'
_symmetry_space_group_name_H-M    'P1'
_symmetry_Int_Tables_number       1
_symmetry_cell_setting            triclinic
loop_
_symmetry_equiv_pos_as_xyz
  x,y,z
_cell_length_a                    16.692800000000002
_cell_length_b                    28.4285
_cell_length_c                    19.5001
_cell_angle_alpha                 90.0
_cell_angle_beta                  90.0
_cell_angle_gamma                 90.0
loop_
_atom_site_label
_atom_site_type_symbol
_atom_site_fract_x
_atom_site_fract_y
_atom_site_fract_z
V1    V   0.18345  0.57852  0.83272
V2    V   0.18345  0.92148  0.33272
V3    V   0.31655  0.57852  0.33272
V4    V   0.31655  0.92148  0.83272
V5    V   0.68345  0.07852  0.16728
V6    V   0.68345  0.42148  0.66728
V7    V   0.81655  0.07852  0.66728
V8    V   0.81655  0.42148  0.16728
E1    E   0.00000  0.00000  0.50000
E2    E   0.00000  0.50000  0.00000
E3    E   0.06655  0.00000  0.75000
E4    E   0.06655  0.50000  0.25000
E5    E   0.25000  0.57852  0.08272
E6    E   0.25000  0.57852  0.58272
E7    E   0.25000  0.75000  0.33272
E8    E   0.25000  0.75000  0.83272
E9    E   0.25000  0.92148  0.08272
E10   E   0.25000  0.92148  0.58272
E11   E   0.43345  0.00000  0.25000
E12   E   0.43345  0.50000  0.75000
E13   E   0.50000  0.00000  0.00000
E14   E   0.50000  0.50000  0.50000
E15   E   0.56655  0.00000  0.75000
E16   E   0.56655  0.50000  0.25000
E17   E   0.75000  0.07852  0.41728
E18   E   0.75000  0.07852  0.91728
E19   E   0.75000  0.25000  0.16728
E20   E   0.75000  0.25000  0.66728
E21   E   0.75000  0.42148  0.41728
E22   E   0.75000  0.42148  0.91728
E23   E   0.93345  0.00000  0.25000
E24   E   0.93345  0.50000  0.75000
loop_
