data_vch_Ccca:2  hall_number: 325, V_con: 7
_audit_creation_date              2025-03-05
_audit_creation_method            'MOFbuilder_1.0'
_symmetry_space_group_name_H-M    'P1'
_symmetry_Int_Tables_number       1
_symmetry_cell_setting            triclinic
loop_
_symmetry_equiv_pos_as_xyz
  x,y,z
_cell_length_a                    9.9999
_cell_length_b                    38.5559
_cell_length_c                    37.059000000000005
_cell_angle_alpha                 90.0
_cell_angle_beta                  90.0
_cell_angle_gamma                 90.0
loop_
_atom_site_label
_atom_site_type_symbol
_atom_site_fract_x
_atom_site_fract_y
_atom_site_fract_z
V1    V   0.08061  0.12201  0.11684
V2    V   0.08061  0.37799  0.61684
V3    V   0.08061  0.62201  0.88316
V4    V   0.08061  0.87799  0.38316
V5    V   0.41939  0.12201  0.38316
V6    V   0.41939  0.37799  0.88316
V7    V   0.41939  0.62201  0.61684
V8    V   0.41939  0.87799  0.11684
V9    V   0.58061  0.12201  0.88316
V10   V   0.58061  0.37799  0.38316
V11   V   0.58061  0.62201  0.11684
V12   V   0.58061  0.87799  0.61684
V13   V   0.91939  0.12201  0.61684
V14   V   0.91939  0.37799  0.11684
V15   V   0.91939  0.62201  0.38316
V16   V   0.91939  0.87799  0.88316
E1    E   0.00000  0.12201  0.25000
E2    E   0.00000  0.12201  0.75000
E3    E   0.00000  0.25000  0.11684
E4    E   0.00000  0.25000  0.61684
E5    E   0.00000  0.37799  0.25000
E6    E   0.00000  0.37799  0.75000
E7    E   0.00000  0.62201  0.25000
E8    E   0.00000  0.62201  0.75000
E9    E   0.00000  0.75000  0.38316
E10   E   0.00000  0.75000  0.88316
E11   E   0.00000  0.87799  0.25000
E12   E   0.00000  0.87799  0.75000
E13   E   0.08061  0.12201  0.88316
E14   E   0.08061  0.37799  0.38316
E15   E   0.08061  0.62201  0.11684
E16   E   0.08061  0.87799  0.61684
E17   E   0.16939  0.12201  0.50000
E18   E   0.16939  0.37799  0.00000
E19   E   0.16939  0.62201  0.50000
E20   E   0.16939  0.87799  0.00000
E21   E   0.25000  0.00000  0.11684
E22   E   0.25000  0.00000  0.38316
E23   E   0.25000  0.50000  0.61684
E24   E   0.25000  0.50000  0.88316
E25   E   0.33061  0.12201  0.00000
E26   E   0.33061  0.37799  0.50000
E27   E   0.33061  0.62201  0.00000
E28   E   0.33061  0.87799  0.50000
E29   E   0.41939  0.12201  0.61684
E30   E   0.41939  0.37799  0.11684
E31   E   0.41939  0.62201  0.38316
E32   E   0.41939  0.87799  0.88316
E33   E   0.50000  0.12201  0.25000
E34   E   0.50000  0.12201  0.75000
E35   E   0.50000  0.25000  0.38316
E36   E   0.50000  0.25000  0.88316
E37   E   0.50000  0.37799  0.25000
E38   E   0.50000  0.37799  0.75000
E39   E   0.50000  0.62201  0.25000
E40   E   0.50000  0.62201  0.75000
E41   E   0.50000  0.75000  0.11684
E42   E   0.50000  0.75000  0.61684
E43   E   0.50000  0.87799  0.25000
E44   E   0.50000  0.87799  0.75000
E45   E   0.58061  0.12201  0.11684
E46   E   0.58061  0.37799  0.61684
E47   E   0.58061  0.62201  0.88316
E48   E   0.58061  0.87799  0.38316
E49   E   0.66939  0.12201  0.50000
E50   E   0.66939  0.37799  0.00000
E51   E   0.66939  0.62201  0.50000
E52   E   0.66939  0.87799  0.00000
E53   E   0.75000  0.00000  0.61684
E54   E   0.75000  0.00000  0.88316
E55   E   0.75000  0.50000  0.11684
E56   E   0.75000  0.50000  0.38316
E57   E   0.83061  0.12201  0.00000
E58   E   0.83061  0.37799  0.50000
E59   E   0.83061  0.62201  0.00000
E60   E   0.83061  0.87799  0.50000
E61   E   0.91939  0.12201  0.38316
E62   E   0.91939  0.37799  0.88316
E63   E   0.91939  0.62201  0.61684
E64   E   0.91939  0.87799  0.11684
loop_
