data_vcj_Pbca  hall_number: 290, V_con: 7
_audit_creation_date              2025-03-05
_audit_creation_method            'MOFbuilder_1.0'
_symmetry_space_group_name_H-M    'P1'
_symmetry_Int_Tables_number       1
_symmetry_cell_setting            triclinic
loop_
_symmetry_equiv_pos_as_xyz
  x,y,z
_cell_length_a                    19.4485
_cell_length_b                    27.010399999999997
_cell_length_c                    13.8788
_cell_angle_alpha                 90.0
_cell_angle_beta                  90.0
_cell_angle_gamma                 90.0
loop_
_atom_site_label
_atom_site_type_symbol
_atom_site_fract_x
_atom_site_fract_y
_atom_site_fract_z
V1    V   0.16059  0.61671  0.66598
V2    V   0.16059  0.88329  0.16598
V3    V   0.33941  0.11671  0.66598
V4    V   0.33941  0.38329  0.16598
V5    V   0.66059  0.61671  0.83402
V6    V   0.66059  0.88329  0.33402
V7    V   0.83941  0.11671  0.83402
V8    V   0.83941  0.38329  0.33402
E1    E   0.00000  0.00000  0.00000
E2    E   0.00000  0.50000  0.50000
E3    E   0.08941  0.11671  0.75000
E4    E   0.08941  0.38329  0.25000
E5    E   0.16059  0.75000  0.41598
E6    E   0.16059  0.75000  0.91598
E7    E   0.25000  0.00000  0.41598
E8    E   0.25000  0.00000  0.91598
E9    E   0.25000  0.50000  0.41598
E10   E   0.25000  0.50000  0.91598
E11   E   0.33941  0.25000  0.41598
E12   E   0.33941  0.25000  0.91598
E13   E   0.41059  0.61671  0.75000
E14   E   0.41059  0.88329  0.25000
E15   E   0.50000  0.00000  0.50000
E16   E   0.50000  0.50000  0.00000
E17   E   0.58941  0.11671  0.75000
E18   E   0.58941  0.38329  0.25000
E19   E   0.66059  0.75000  0.08402
E20   E   0.66059  0.75000  0.58402
E21   E   0.75000  0.00000  0.08402
E22   E   0.75000  0.00000  0.58402
E23   E   0.75000  0.50000  0.08402
E24   E   0.75000  0.50000  0.58402
E25   E   0.83941  0.25000  0.08402
E26   E   0.83941  0.25000  0.58402
E27   E   0.91059  0.61671  0.75000
E28   E   0.91059  0.88329  0.25000
loop_
