data_vcm_Cmca  hall_number: 304, V_con: 7
_audit_creation_date              2025-03-05
_audit_creation_method            'MOFbuilder_1.0'
_symmetry_space_group_name_H-M    'P1'
_symmetry_Int_Tables_number       1
_symmetry_cell_setting            triclinic
loop_
_symmetry_equiv_pos_as_xyz
  x,y,z
_cell_length_a                    19.6598
_cell_length_b                    19.6597
_cell_length_c                    18.8626
_cell_angle_alpha                 90.0
_cell_angle_beta                  90.0
_cell_angle_gamma                 90.0
loop_
_atom_site_label
_atom_site_type_symbol
_atom_site_fract_x
_atom_site_fract_y
_atom_site_fract_z
V1    V   0.00000  0.16545  0.70131
V2    V   0.00000  0.33455  0.20131
V3    V   0.00000  0.66545  0.79869
V4    V   0.00000  0.83455  0.29869
V5    V   0.50000  0.16545  0.79869
V6    V   0.50000  0.33455  0.29869
V7    V   0.50000  0.66545  0.70131
V8    V   0.50000  0.83455  0.20131
E1    E   0.00000  0.00000  0.50000
E2    E   0.00000  0.08455  0.25000
E3    E   0.00000  0.25000  0.45131
E4    E   0.00000  0.25000  0.95131
E5    E   0.00000  0.41545  0.75000
E6    E   0.00000  0.50000  0.00000
E7    E   0.00000  0.58455  0.25000
E8    E   0.00000  0.75000  0.04869
E9    E   0.00000  0.75000  0.54869
E10   E   0.00000  0.91545  0.75000
E11   E   0.25000  0.16545  0.75000
E12   E   0.25000  0.33455  0.25000
E13   E   0.25000  0.66545  0.75000
E14   E   0.25000  0.83455  0.25000
E15   E   0.50000  0.00000  0.00000
E16   E   0.50000  0.08455  0.25000
E17   E   0.50000  0.25000  0.04869
E18   E   0.50000  0.25000  0.54869
E19   E   0.50000  0.41545  0.75000
E20   E   0.50000  0.50000  0.50000
E21   E   0.50000  0.58455  0.25000
E22   E   0.50000  0.75000  0.45131
E23   E   0.50000  0.75000  0.95131
E24   E   0.50000  0.91545  0.75000
E25   E   0.75000  0.16545  0.75000
E26   E   0.75000  0.33455  0.25000
E27   E   0.75000  0.66545  0.75000
E28   E   0.75000  0.83455  0.25000
loop_
