data_vcn_Cmca  hall_number: 304, V_con: 7
_audit_creation_date              2025-03-05
_audit_creation_method            'MOFbuilder_1.0'
_symmetry_space_group_name_H-M    'P1'
_symmetry_Int_Tables_number       1
_symmetry_cell_setting            triclinic
loop_
_symmetry_equiv_pos_as_xyz
  x,y,z
_cell_length_a                    19.6815
_cell_length_b                    36.2536
_cell_length_c                    10.0
_cell_angle_alpha                 90.0
_cell_angle_beta                  90.0
_cell_angle_gamma                 90.0
loop_
_atom_site_label
_atom_site_type_symbol
_atom_site_fract_x
_atom_site_fract_y
_atom_site_fract_z
V1    V   0.00000  0.13056  0.66112
V2    V   0.00000  0.36944  0.16112
V3    V   0.00000  0.63056  0.83888
V4    V   0.00000  0.86944  0.33888
V5    V   0.50000  0.13056  0.83888
V6    V   0.50000  0.36944  0.33888
V7    V   0.50000  0.63056  0.66112
V8    V   0.50000  0.86944  0.16112
E1    E   0.00000  0.00000  0.50000
E2    E   0.00000  0.13056  0.16112
E3    E   0.00000  0.25000  0.41112
E4    E   0.00000  0.25000  0.91112
E5    E   0.00000  0.36944  0.66112
E6    E   0.00000  0.50000  0.00000
E7    E   0.00000  0.63056  0.33888
E8    E   0.00000  0.75000  0.08888
E9    E   0.00000  0.75000  0.58888
E10   E   0.00000  0.86944  0.83888
E11   E   0.25000  0.13056  0.75000
E12   E   0.25000  0.36944  0.25000
E13   E   0.25000  0.63056  0.75000
E14   E   0.25000  0.86944  0.25000
E15   E   0.50000  0.00000  0.00000
E16   E   0.50000  0.13056  0.33888
E17   E   0.50000  0.25000  0.08888
E18   E   0.50000  0.25000  0.58888
E19   E   0.50000  0.36944  0.83888
E20   E   0.50000  0.50000  0.50000
E21   E   0.50000  0.63056  0.16112
E22   E   0.50000  0.75000  0.41112
E23   E   0.50000  0.75000  0.91112
E24   E   0.50000  0.86944  0.66112
E25   E   0.75000  0.13056  0.75000
E26   E   0.75000  0.36944  0.25000
E27   E   0.75000  0.63056  0.75000
E28   E   0.75000  0.86944  0.25000
loop_
