data_vct_Pbcn  hall_number: 284, V_con: 8
_audit_creation_date              2025-03-05
_audit_creation_method            'MOFbuilder_1.0'
_symmetry_space_group_name_H-M    'P1'
_symmetry_Int_Tables_number       1
_symmetry_cell_setting            triclinic
loop_
_symmetry_equiv_pos_as_xyz
  x,y,z
_cell_length_a                    19.1449
_cell_length_b                    19.109
_cell_length_c                    18.559
_cell_angle_alpha                 90.0
_cell_angle_beta                  90.0
_cell_angle_gamma                 90.0
loop_
_atom_site_label
_atom_site_type_symbol
_atom_site_fract_x
_atom_site_fract_y
_atom_site_fract_z
V1    V   0.17292  0.30956  0.04810
V2    V   0.17292  0.69044  0.54810
V3    V   0.32708  0.19044  0.54810
V4    V   0.32708  0.80956  0.04810
V5    V   0.67292  0.19044  0.95190
V6    V   0.67292  0.80956  0.45190
V7    V   0.82708  0.30956  0.45190
V8    V   0.82708  0.69044  0.95190
E1    E   0.00000  0.30956  0.25000
E2    E   0.00000  0.50000  0.00000
E3    E   0.00000  0.50000  0.50000
E4    E   0.00000  0.69044  0.75000
E5    E   0.07708  0.25000  0.50000
E6    E   0.07708  0.75000  0.00000
E7    E   0.25000  0.05956  0.04810
E8    E   0.25000  0.25000  0.29810
E9    E   0.25000  0.25000  0.79810
E10   E   0.25000  0.44044  0.54810
E11   E   0.25000  0.55956  0.04810
E12   E   0.25000  0.75000  0.29810
E13   E   0.25000  0.75000  0.79810
E14   E   0.25000  0.94044  0.54810
E15   E   0.42292  0.25000  0.00000
E16   E   0.42292  0.75000  0.50000
E17   E   0.50000  0.00000  0.00000
E18   E   0.50000  0.00000  0.50000
E19   E   0.50000  0.19044  0.75000
E20   E   0.50000  0.80956  0.25000
E21   E   0.57708  0.25000  0.50000
E22   E   0.57708  0.75000  0.00000
E23   E   0.75000  0.05956  0.45190
E24   E   0.75000  0.25000  0.20190
E25   E   0.75000  0.25000  0.70190
E26   E   0.75000  0.44044  0.95190
E27   E   0.75000  0.55956  0.45190
E28   E   0.75000  0.75000  0.20190
E29   E   0.75000  0.75000  0.70190
E30   E   0.75000  0.94044  0.95190
E31   E   0.92292  0.25000  0.00000
E32   E   0.92292  0.75000  0.50000
loop_
