data_vcw_Pbca  hall_number: 290, V_con: 9
_audit_creation_date              2025-03-05
_audit_creation_method            'MOFbuilder_1.0'
_symmetry_space_group_name_H-M    'P1'
_symmetry_Int_Tables_number       1
_symmetry_cell_setting            triclinic
loop_
_symmetry_equiv_pos_as_xyz
  x,y,z
_cell_length_a                    19.7759
_cell_length_b                    32.3529
_cell_length_c                    10.0001
_cell_angle_alpha                 90.0
_cell_angle_beta                  90.0
_cell_angle_gamma                 90.0
loop_
_atom_site_label
_atom_site_type_symbol
_atom_site_fract_x
_atom_site_fract_y
_atom_site_fract_z
V1    V   0.14124  0.61616  0.67536
V2    V   0.14124  0.88384  0.17536
V3    V   0.35876  0.11616  0.67536
V4    V   0.35876  0.38384  0.17536
V5    V   0.64124  0.61616  0.82464
V6    V   0.64124  0.88384  0.32464
V7    V   0.85876  0.11616  0.82464
V8    V   0.85876  0.38384  0.32464
E1    E   0.00000  0.00000  0.00000
E2    E   0.00000  0.50000  0.50000
E3    E   0.10876  0.11616  0.75000
E4    E   0.10876  0.38384  0.25000
E5    E   0.14124  0.61616  0.17536
E6    E   0.14124  0.75000  0.42536
E7    E   0.14124  0.75000  0.92536
E8    E   0.14124  0.88384  0.67536
E9    E   0.25000  0.00000  0.42536
E10   E   0.25000  0.00000  0.92536
E11   E   0.25000  0.50000  0.42536
E12   E   0.25000  0.50000  0.92536
E13   E   0.35876  0.11616  0.17536
E14   E   0.35876  0.25000  0.42536
E15   E   0.35876  0.25000  0.92536
E16   E   0.35876  0.38384  0.67536
E17   E   0.39124  0.61616  0.75000
E18   E   0.39124  0.88384  0.25000
E19   E   0.50000  0.00000  0.50000
E20   E   0.50000  0.50000  0.00000
E21   E   0.60876  0.11616  0.75000
E22   E   0.60876  0.38384  0.25000
E23   E   0.64124  0.61616  0.32464
E24   E   0.64124  0.75000  0.07464
E25   E   0.64124  0.75000  0.57464
E26   E   0.64124  0.88384  0.82464
E27   E   0.75000  0.00000  0.07464
E28   E   0.75000  0.00000  0.57464
E29   E   0.75000  0.50000  0.07464
E30   E   0.75000  0.50000  0.57464
E31   E   0.85876  0.11616  0.32464
E32   E   0.85876  0.25000  0.07464
E33   E   0.85876  0.25000  0.57464
E34   E   0.85876  0.38384  0.82464
E35   E   0.89124  0.61616  0.75000
E36   E   0.89124  0.88384  0.25000
loop_
