data_vcx_Cmca  hall_number: 304, V_con: 9
_audit_creation_date              2025-03-05
_audit_creation_method            'MOFbuilder_1.0'
_symmetry_space_group_name_H-M    'P1'
_symmetry_Int_Tables_number       1
_symmetry_cell_setting            triclinic
loop_
_symmetry_equiv_pos_as_xyz
  x,y,z
_cell_length_a                    12.020999999999999
_cell_length_b                    15.984100000000002
_cell_length_c                    31.587
_cell_angle_alpha                 90.0
_cell_angle_beta                  90.0
_cell_angle_gamma                 90.0
loop_
_atom_site_label
_atom_site_type_symbol
_atom_site_fract_x
_atom_site_fract_y
_atom_site_fract_z
V1    V   0.00000  0.19570  0.37651
V2    V   0.00000  0.30430  0.87651
V3    V   0.00000  0.69570  0.12349
V4    V   0.00000  0.80430  0.62349
V5    V   0.50000  0.19570  0.12349
V6    V   0.50000  0.30430  0.62349
V7    V   0.50000  0.69570  0.37651
V8    V   0.50000  0.80430  0.87651
E1    E   0.00000  0.00000  0.50000
E2    E   0.00000  0.50000  0.00000
E3    E   0.25000  0.05430  0.62349
E4    E   0.25000  0.05430  0.87651
E5    E   0.25000  0.19570  0.25000
E6    E   0.25000  0.25000  0.00000
E7    E   0.25000  0.25000  0.50000
E8    E   0.25000  0.30430  0.75000
E9    E   0.25000  0.44570  0.12349
E10   E   0.25000  0.44570  0.37651
E11   E   0.25000  0.55430  0.62349
E12   E   0.25000  0.55430  0.87651
E13   E   0.25000  0.69570  0.25000
E14   E   0.25000  0.75000  0.00000
E15   E   0.25000  0.75000  0.50000
E16   E   0.25000  0.80430  0.75000
E17   E   0.25000  0.94570  0.12349
E18   E   0.25000  0.94570  0.37651
E19   E   0.50000  0.00000  0.00000
E20   E   0.50000  0.50000  0.50000
E21   E   0.75000  0.05430  0.62349
E22   E   0.75000  0.05430  0.87651
E23   E   0.75000  0.19570  0.25000
E24   E   0.75000  0.25000  0.00000
E25   E   0.75000  0.25000  0.50000
E26   E   0.75000  0.30430  0.75000
E27   E   0.75000  0.44570  0.12349
E28   E   0.75000  0.44570  0.37651
E29   E   0.75000  0.55430  0.62349
E30   E   0.75000  0.55430  0.87651
E31   E   0.75000  0.69570  0.25000
E32   E   0.75000  0.75000  0.00000
E33   E   0.75000  0.75000  0.50000
E34   E   0.75000  0.80430  0.75000
E35   E   0.75000  0.94570  0.12349
E36   E   0.75000  0.94570  0.37651
loop_
