data_vcz_Pbcn  hall_number: 284, V_con: 6
_audit_creation_date              2025-03-05
_audit_creation_method            'MOFbuilder_1.0'
_symmetry_space_group_name_H-M    'P1'
_symmetry_Int_Tables_number       1
_symmetry_cell_setting            triclinic
loop_
_symmetry_equiv_pos_as_xyz
  x,y,z
_cell_length_a                    24.180999999999997
_cell_length_b                    23.546999999999997
_cell_length_c                    14.506499999999999
_cell_angle_alpha                 90.0
_cell_angle_beta                  90.0
_cell_angle_gamma                 90.0
loop_
_atom_site_label
_atom_site_type_symbol
_atom_site_fract_x
_atom_site_fract_y
_atom_site_fract_z
V1    V   0.14980  0.14618  0.51241
V2    V   0.14980  0.85382  0.01241
V3    V   0.35020  0.35382  0.01241
V4    V   0.35020  0.64618  0.51241
V5    V   0.64980  0.35382  0.48759
V6    V   0.64980  0.64618  0.98759
V7    V   0.85020  0.14618  0.98759
V8    V   0.85020  0.85382  0.48759
E1    E   0.00000  0.00000  0.00000
E2    E   0.00000  0.00000  0.50000
E3    E   0.00000  0.14618  0.75000
E4    E   0.00000  0.85382  0.25000
E5    E   0.14980  0.00000  0.26241
E6    E   0.14980  0.00000  0.76241
E7    E   0.25000  0.25000  0.26241
E8    E   0.25000  0.25000  0.76241
E9    E   0.25000  0.75000  0.26241
E10   E   0.25000  0.75000  0.76241
E11   E   0.35020  0.50000  0.26241
E12   E   0.35020  0.50000  0.76241
E13   E   0.50000  0.35382  0.25000
E14   E   0.50000  0.50000  0.00000
E15   E   0.50000  0.50000  0.50000
E16   E   0.50000  0.64618  0.75000
E17   E   0.64980  0.50000  0.23759
E18   E   0.64980  0.50000  0.73759
E19   E   0.75000  0.25000  0.23759
E20   E   0.75000  0.25000  0.73759
E21   E   0.75000  0.75000  0.23759
E22   E   0.75000  0.75000  0.73759
E23   E   0.85020  0.00000  0.23759
E24   E   0.85020  0.00000  0.73759
loop_
