data_vmg_C12/c1  hall_number: 107, V_con: 6
_audit_creation_date              2025-03-05
_audit_creation_method            'MOFbuilder_1.0'
_symmetry_space_group_name_H-M    'P1'
_symmetry_Int_Tables_number       1
_symmetry_cell_setting            triclinic
loop_
_symmetry_equiv_pos_as_xyz
  x,y,z
_cell_length_a                    17.9531
_cell_length_b                    28.893900000000002
_cell_length_c                    16.883
_cell_angle_alpha                 90.0
_cell_angle_beta                  100.1722
_cell_angle_gamma                 90.0
loop_
_atom_site_label
_atom_site_type_symbol
_atom_site_fract_x
_atom_site_fract_y
_atom_site_fract_z
V1    V   0.22798  0.09277  0.88260
V2    V   0.22798  0.40723  0.11740
V3    V   0.27202  0.09277  0.38260
V4    V   0.27202  0.40723  0.61740
V5    V   0.72798  0.59277  0.38260
V6    V   0.72798  0.90723  0.61740
V7    V   0.77202  0.59277  0.88260
V8    V   0.77202  0.90723  0.11740
E1    E   0.00000  0.00000  0.00000
E2    E   0.00000  0.09277  0.25000
E3    E   0.00000  0.09277  0.75000
E4    E   0.00000  0.40723  0.25000
E5    E   0.00000  0.40723  0.75000
E6    E   0.00000  0.50000  0.00000
E7    E   0.00000  0.59277  0.25000
E8    E   0.00000  0.59277  0.75000
E9    E   0.00000  0.90723  0.25000
E10   E   0.00000  0.90723  0.75000
E11   E   0.22798  0.00000  0.13260
E12   E   0.22798  0.50000  0.86740
E13   E   0.25000  0.25000  0.00000
E14   E   0.25000  0.25000  0.50000
E15   E   0.27202  0.00000  0.63260
E16   E   0.27202  0.50000  0.36740
E17   E   0.50000  0.00000  0.50000
E18   E   0.50000  0.09277  0.25000
E19   E   0.50000  0.09277  0.75000
E20   E   0.50000  0.40723  0.25000
E21   E   0.50000  0.40723  0.75000
E22   E   0.50000  0.50000  0.50000
E23   E   0.50000  0.59277  0.25000
E24   E   0.50000  0.59277  0.75000
E25   E   0.50000  0.90723  0.25000
E26   E   0.50000  0.90723  0.75000
E27   E   0.72798  0.00000  0.36740
E28   E   0.72798  0.50000  0.63260
E29   E   0.75000  0.75000  0.00000
E30   E   0.75000  0.75000  0.50000
E31   E   0.77202  0.00000  0.86740
E32   E   0.77202  0.50000  0.13260
loop_
