data_vmh_C12/c1  hall_number: 107, V_con: 6
_audit_creation_date              2025-03-05
_audit_creation_method            'MOFbuilder_1.0'
_symmetry_space_group_name_H-M    'P1'
_symmetry_Int_Tables_number       1
_symmetry_cell_setting            triclinic
loop_
_symmetry_equiv_pos_as_xyz
  x,y,z
_cell_length_a                    18.2199
_cell_length_b                    27.3774
_cell_length_c                    18.489
_cell_angle_alpha                 90.0
_cell_angle_beta                  104.7266
_cell_angle_gamma                 90.0
loop_
_atom_site_label
_atom_site_type_symbol
_atom_site_fract_x
_atom_site_fract_y
_atom_site_fract_z
V1    V   0.23866  0.06964  0.54395
V2    V   0.23866  0.43036  0.45605
V3    V   0.26134  0.06964  0.04395
V4    V   0.26134  0.43036  0.95605
V5    V   0.73866  0.56964  0.04395
V6    V   0.73866  0.93036  0.95605
V7    V   0.76134  0.56964  0.54395
V8    V   0.76134  0.93036  0.45605
E1    E   0.00000  0.00000  0.00000
E2    E   0.00000  0.00000  0.50000
E3    E   0.00000  0.06964  0.75000
E4    E   0.00000  0.43036  0.25000
E5    E   0.00000  0.50000  0.00000
E6    E   0.00000  0.50000  0.50000
E7    E   0.00000  0.56964  0.75000
E8    E   0.00000  0.93036  0.25000
E9    E   0.23866  0.00000  0.29395
E10   E   0.23866  0.50000  0.70605
E11   E   0.25000  0.25000  0.00000
E12   E   0.25000  0.25000  0.50000
E13   E   0.26134  0.00000  0.79395
E14   E   0.26134  0.50000  0.20605
E15   E   0.50000  0.00000  0.00000
E16   E   0.50000  0.00000  0.50000
E17   E   0.50000  0.06964  0.25000
E18   E   0.50000  0.43036  0.75000
E19   E   0.50000  0.50000  0.00000
E20   E   0.50000  0.50000  0.50000
E21   E   0.50000  0.56964  0.25000
E22   E   0.50000  0.93036  0.75000
E23   E   0.73866  0.00000  0.20605
E24   E   0.73866  0.50000  0.79395
E25   E   0.75000  0.75000  0.00000
E26   E   0.75000  0.75000  0.50000
E27   E   0.76134  0.00000  0.70605
E28   E   0.76134  0.50000  0.29395
loop_
