data_vmj_I12/a1  hall_number: 107, V_con: 6
_audit_creation_date              2025-03-05
_audit_creation_method            'MOFbuilder_1.0'
_symmetry_space_group_name_H-M    'P1'
_symmetry_Int_Tables_number       1
_symmetry_cell_setting            triclinic
loop_
_symmetry_equiv_pos_as_xyz
  x,y,z
_cell_length_a                    29.176700000000004
_cell_length_b                    16.6822
_cell_length_c                    19.502
_cell_angle_alpha                 90.0
_cell_angle_beta                  102.8702
_cell_angle_gamma                 90.0
loop_
_atom_site_label
_atom_site_type_symbol
_atom_site_fract_x
_atom_site_fract_y
_atom_site_fract_z
V1    V   0.07859  0.68353  0.69336
V2    V   0.07859  0.81647  0.30664
V3    V   0.42141  0.68353  0.19336
V4    V   0.42141  0.81647  0.80664
V5    V   0.57859  0.18353  0.19336
V6    V   0.57859  0.31647  0.80664
V7    V   0.92141  0.18353  0.69336
V8    V   0.92141  0.31647  0.30664
E1    E   0.00000  0.00000  0.50000
E2    E   0.00000  0.06647  0.25000
E3    E   0.00000  0.43353  0.75000
E4    E   0.00000  0.50000  0.50000
E5    E   0.00000  0.56647  0.25000
E6    E   0.00000  0.93353  0.75000
E7    E   0.07859  0.75000  0.44336
E8    E   0.07859  0.75000  0.55664
E9    E   0.25000  0.75000  0.25000
E10   E   0.25000  0.75000  0.75000
E11   E   0.42141  0.75000  0.05664
E12   E   0.42141  0.75000  0.94336
E13   E   0.50000  0.00000  0.00000
E14   E   0.50000  0.06647  0.75000
E15   E   0.50000  0.43353  0.25000
E16   E   0.50000  0.50000  0.00000
E17   E   0.50000  0.56647  0.75000
E18   E   0.50000  0.93353  0.25000
E19   E   0.57859  0.25000  0.05664
E20   E   0.57859  0.25000  0.94336
E21   E   0.75000  0.25000  0.25000
E22   E   0.75000  0.25000  0.75000
E23   E   0.92141  0.25000  0.44336
E24   E   0.92141  0.25000  0.55664
loop_
