data_vmk_I12/a1  hall_number: 107, V_con: 6
_audit_creation_date              2025-03-05
_audit_creation_method            'MOFbuilder_1.0'
_symmetry_space_group_name_H-M    'P1'
_symmetry_Int_Tables_number       1
_symmetry_cell_setting            triclinic
loop_
_symmetry_equiv_pos_as_xyz
  x,y,z
_cell_length_a                    24.5091
_cell_length_b                    22.976200000000002
_cell_length_c                    14.659199999999998
_cell_angle_alpha                 90.0
_cell_angle_beta                  92.3768
_cell_angle_gamma                 90.0
loop_
_atom_site_label
_atom_site_type_symbol
_atom_site_fract_x
_atom_site_fract_y
_atom_site_fract_z
V1    V   0.10070  0.60196  0.25698
V2    V   0.10070  0.89804  0.74302
V3    V   0.39930  0.60196  0.75698
V4    V   0.39930  0.89804  0.24302
V5    V   0.60070  0.10196  0.75698
V6    V   0.60070  0.39804  0.24302
V7    V   0.89930  0.10196  0.25698
V8    V   0.89930  0.39804  0.74302
E1    E   0.00000  0.00000  0.00000
E2    E   0.00000  0.00000  0.50000
E3    E   0.00000  0.50000  0.00000
E4    E   0.00000  0.50000  0.50000
E5    E   0.10070  0.75000  0.00698
E6    E   0.10070  0.75000  0.99302
E7    E   0.25000  0.60196  0.00000
E8    E   0.25000  0.60196  0.50000
E9    E   0.25000  0.75000  0.25000
E10   E   0.25000  0.75000  0.75000
E11   E   0.25000  0.89804  0.00000
E12   E   0.25000  0.89804  0.50000
E13   E   0.39930  0.75000  0.49302
E14   E   0.39930  0.75000  0.50698
E15   E   0.50000  0.00000  0.00000
E16   E   0.50000  0.00000  0.50000
E17   E   0.50000  0.50000  0.00000
E18   E   0.50000  0.50000  0.50000
E19   E   0.60070  0.25000  0.49302
E20   E   0.60070  0.25000  0.50698
E21   E   0.75000  0.10196  0.00000
E22   E   0.75000  0.10196  0.50000
E23   E   0.75000  0.25000  0.25000
E24   E   0.75000  0.25000  0.75000
E25   E   0.75000  0.39804  0.00000
E26   E   0.75000  0.39804  0.50000
E27   E   0.89930  0.25000  0.00698
E28   E   0.89930  0.25000  0.99302
loop_
