data_vmo_C12/c1  hall_number: 107, V_con: 7
_audit_creation_date              2025-03-05
_audit_creation_method            'MOFbuilder_1.0'
_symmetry_space_group_name_H-M    'P1'
_symmetry_Int_Tables_number       1
_symmetry_cell_setting            triclinic
loop_
_symmetry_equiv_pos_as_xyz
  x,y,z
_cell_length_a                    17.7845
_cell_length_b                    33.1873
_cell_length_c                    14.1421
_cell_angle_alpha                 90.0
_cell_angle_beta                  107.7751
_cell_angle_gamma                 90.0
loop_
_atom_site_label
_atom_site_type_symbol
_atom_site_fract_x
_atom_site_fract_y
_atom_site_fract_z
V1    V   0.20877  0.10653  0.91985
V2    V   0.20877  0.39347  0.08015
V3    V   0.29123  0.10653  0.41985
V4    V   0.29123  0.39347  0.58015
V5    V   0.70877  0.60653  0.41985
V6    V   0.70877  0.89347  0.58015
V7    V   0.79123  0.60653  0.91985
V8    V   0.79123  0.89347  0.08015
E1    E   0.00000  0.00000  0.00000
E2    E   0.00000  0.10653  0.25000
E3    E   0.00000  0.10653  0.75000
E4    E   0.00000  0.39347  0.25000
E5    E   0.00000  0.39347  0.75000
E6    E   0.00000  0.50000  0.00000
E7    E   0.00000  0.60653  0.25000
E8    E   0.00000  0.60653  0.75000
E9    E   0.00000  0.89347  0.25000
E10   E   0.00000  0.89347  0.75000
E11   E   0.20877  0.00000  0.16985
E12   E   0.20877  0.50000  0.83015
E13   E   0.25000  0.25000  0.00000
E14   E   0.25000  0.25000  0.50000
E15   E   0.29123  0.00000  0.66985
E16   E   0.29123  0.50000  0.33015
E17   E   0.50000  0.00000  0.50000
E18   E   0.50000  0.10653  0.25000
E19   E   0.50000  0.10653  0.75000
E20   E   0.50000  0.39347  0.25000
E21   E   0.50000  0.39347  0.75000
E22   E   0.50000  0.50000  0.50000
E23   E   0.50000  0.60653  0.25000
E24   E   0.50000  0.60653  0.75000
E25   E   0.50000  0.89347  0.25000
E26   E   0.50000  0.89347  0.75000
E27   E   0.70877  0.00000  0.33015
E28   E   0.70877  0.50000  0.66985
E29   E   0.75000  0.75000  0.00000
E30   E   0.75000  0.75000  0.50000
E31   E   0.79123  0.00000  0.83015
E32   E   0.79123  0.50000  0.16985
loop_
