data_vmu_C12/c1  hall_number: 107, V_con: 8
_audit_creation_date              2025-03-05
_audit_creation_method            'MOFbuilder_1.0'
_symmetry_space_group_name_H-M    'P1'
_symmetry_Int_Tables_number       1
_symmetry_cell_setting            triclinic
loop_
_symmetry_equiv_pos_as_xyz
  x,y,z
_cell_length_a                    36.0079
_cell_length_b                    10.0
_cell_length_c                    19.788600000000002
_cell_angle_alpha                 90.0
_cell_angle_beta                  103.5229
_cell_angle_gamma                 90.0
loop_
_atom_site_label
_atom_site_type_symbol
_atom_site_fract_x
_atom_site_fract_y
_atom_site_fract_z
V1    V   0.14281  0.07252  0.68644
V2    V   0.14281  0.42748  0.31356
V3    V   0.35719  0.07252  0.18644
V4    V   0.35719  0.42748  0.81356
V5    V   0.64281  0.57252  0.18644
V6    V   0.64281  0.92748  0.81356
V7    V   0.85719  0.57252  0.68644
V8    V   0.85719  0.92748  0.31356
E1    E   0.00000  0.07252  0.75000
E2    E   0.00000  0.42748  0.25000
E3    E   0.00000  0.57252  0.75000
E4    E   0.00000  0.92748  0.25000
E5    E   0.14281  0.00000  0.43644
E6    E   0.14281  0.50000  0.56356
E7    E   0.14281  0.57252  0.68644
E8    E   0.14281  0.92748  0.31356
E9    E   0.25000  0.25000  0.00000
E10   E   0.25000  0.25000  0.50000
E11   E   0.25000  0.67748  0.25000
E12   E   0.25000  0.67748  0.75000
E13   E   0.25000  0.82252  0.25000
E14   E   0.25000  0.82252  0.75000
E15   E   0.35719  0.00000  0.93644
E16   E   0.35719  0.50000  0.06356
E17   E   0.35719  0.57252  0.18644
E18   E   0.35719  0.92748  0.81356
E19   E   0.50000  0.07252  0.25000
E20   E   0.50000  0.42748  0.75000
E21   E   0.50000  0.57252  0.25000
E22   E   0.50000  0.92748  0.75000
E23   E   0.64281  0.00000  0.06356
E24   E   0.64281  0.07252  0.18644
E25   E   0.64281  0.42748  0.81356
E26   E   0.64281  0.50000  0.93644
E27   E   0.75000  0.17748  0.25000
E28   E   0.75000  0.17748  0.75000
E29   E   0.75000  0.32252  0.25000
E30   E   0.75000  0.32252  0.75000
E31   E   0.75000  0.75000  0.00000
E32   E   0.75000  0.75000  0.50000
E33   E   0.85719  0.00000  0.56356
E34   E   0.85719  0.07252  0.68644
E35   E   0.85719  0.42748  0.31356
E36   E   0.85719  0.50000  0.43644
loop_
