data_vmv_P121/n1  hall_number: 89, V_con: 8
_audit_creation_date              2025-03-05
_audit_creation_method            'MOFbuilder_1.0'
_symmetry_space_group_name_H-M    'P1'
_symmetry_Int_Tables_number       1
_symmetry_cell_setting            triclinic
loop_
_symmetry_equiv_pos_as_xyz
  x,y,z
_cell_length_a                    10.0
_cell_length_b                    18.3988
_cell_length_c                    18.9844
_cell_angle_alpha                 90.0
_cell_angle_beta                  104.9348
_cell_angle_gamma                 90.0
loop_
_atom_site_label
_atom_site_type_symbol
_atom_site_fract_x
_atom_site_fract_y
_atom_site_fract_z
V1    V   0.16855  0.33315  0.16648
V2    V   0.33145  0.33315  0.66648
V3    V   0.66855  0.66685  0.33352
V4    V   0.83145  0.66685  0.83352
E1    E   0.00000  0.50000  0.00000
E2    E   0.00000  0.50000  0.50000
E3    E   0.08145  0.75000  0.58352
E4    E   0.16855  0.66685  0.33352
E5    E   0.25000  0.08315  0.25000
E6    E   0.25000  0.08315  0.75000
E7    E   0.33145  0.66685  0.83352
E8    E   0.41855  0.75000  0.08352
E9    E   0.50000  0.50000  0.00000
E10   E   0.50000  0.50000  0.50000
E11   E   0.58145  0.25000  0.91648
E12   E   0.66855  0.33315  0.16648
E13   E   0.75000  0.91685  0.25000
E14   E   0.75000  0.91685  0.75000
E15   E   0.83145  0.33315  0.66648
E16   E   0.91855  0.25000  0.41648
loop_
