data_vmw_I12/a1  hall_number: 107, V_con: 8
_audit_creation_date              2025-03-05
_audit_creation_method            'MOFbuilder_1.0'
_symmetry_space_group_name_H-M    'P1'
_symmetry_Int_Tables_number       1
_symmetry_cell_setting            triclinic
loop_
_symmetry_equiv_pos_as_xyz
  x,y,z
_cell_length_a                    35.8011
_cell_length_b                    9.9999
_cell_length_c                    19.895400000000002
_cell_angle_alpha                 90.0
_cell_angle_beta                  104.3882
_cell_angle_gamma                 90.0
loop_
_atom_site_label
_atom_site_type_symbol
_atom_site_fract_x
_atom_site_fract_y
_atom_site_fract_z
V1    V   0.10657  0.69891  0.68424
V2    V   0.10657  0.80109  0.31576
V3    V   0.39343  0.69891  0.18424
V4    V   0.39343  0.80109  0.81576
V5    V   0.60657  0.19891  0.18424
V6    V   0.60657  0.30109  0.81576
V7    V   0.89343  0.19891  0.68424
V8    V   0.89343  0.30109  0.31576
E1    E   0.00000  0.00000  0.50000
E2    E   0.00000  0.05109  0.25000
E3    E   0.00000  0.44891  0.75000
E4    E   0.00000  0.50000  0.50000
E5    E   0.00000  0.55109  0.25000
E6    E   0.00000  0.94891  0.75000
E7    E   0.10657  0.19891  0.68424
E8    E   0.10657  0.30109  0.31576
E9    E   0.10657  0.75000  0.43424
E10   E   0.10657  0.75000  0.56576
E11   E   0.25000  0.75000  0.25000
E12   E   0.25000  0.75000  0.75000
E13   E   0.39343  0.19891  0.18424
E14   E   0.39343  0.30109  0.81576
E15   E   0.39343  0.75000  0.06576
E16   E   0.39343  0.75000  0.93424
E17   E   0.50000  0.00000  0.00000
E18   E   0.50000  0.05109  0.75000
E19   E   0.50000  0.44891  0.25000
E20   E   0.50000  0.50000  0.00000
E21   E   0.50000  0.55109  0.75000
E22   E   0.50000  0.94891  0.25000
E23   E   0.60657  0.25000  0.06576
E24   E   0.60657  0.25000  0.93424
E25   E   0.60657  0.69891  0.18424
E26   E   0.60657  0.80109  0.81576
E27   E   0.75000  0.25000  0.25000
E28   E   0.75000  0.25000  0.75000
E29   E   0.89343  0.25000  0.43424
E30   E   0.89343  0.25000  0.56576
E31   E   0.89343  0.69891  0.68424
E32   E   0.89343  0.80109  0.31576
loop_
