data_vmx_C12/c1  hall_number: 107, V_con: 8
_audit_creation_date              2025-03-05
_audit_creation_method            'MOFbuilder_1.0'
_symmetry_space_group_name_H-M    'P1'
_symmetry_Int_Tables_number       1
_symmetry_cell_setting            triclinic
loop_
_symmetry_equiv_pos_as_xyz
  x,y,z
_cell_length_a                    19.0378
_cell_length_b                    36.8723
_cell_length_c                    10.0
_cell_angle_alpha                 90.0
_cell_angle_beta                  102.1557
_cell_angle_gamma                 90.0
loop_
_atom_site_label
_atom_site_type_symbol
_atom_site_fract_x
_atom_site_fract_y
_atom_site_fract_z
V1    V   0.23267  0.11744  0.09327
V2    V   0.23267  0.38256  0.90673
V3    V   0.26733  0.11744  0.59327
V4    V   0.26733  0.38256  0.40673
V5    V   0.73267  0.61744  0.59327
V6    V   0.73267  0.88256  0.40673
V7    V   0.76733  0.61744  0.09327
V8    V   0.76733  0.88256  0.90673
E1    E   0.00000  0.11744  0.25000
E2    E   0.00000  0.11744  0.75000
E3    E   0.00000  0.38256  0.25000
E4    E   0.00000  0.38256  0.75000
E5    E   0.00000  0.61744  0.25000
E6    E   0.00000  0.61744  0.75000
E7    E   0.00000  0.88256  0.25000
E8    E   0.00000  0.88256  0.75000
E9    E   0.23267  0.00000  0.34327
E10   E   0.23267  0.11744  0.59327
E11   E   0.23267  0.38256  0.40673
E12   E   0.23267  0.50000  0.65673
E13   E   0.25000  0.25000  0.00000
E14   E   0.25000  0.25000  0.50000
E15   E   0.26733  0.00000  0.84327
E16   E   0.26733  0.11744  0.09327
E17   E   0.26733  0.38256  0.90673
E18   E   0.26733  0.50000  0.15673
E19   E   0.50000  0.11744  0.25000
E20   E   0.50000  0.11744  0.75000
E21   E   0.50000  0.38256  0.25000
E22   E   0.50000  0.38256  0.75000
E23   E   0.50000  0.61744  0.25000
E24   E   0.50000  0.61744  0.75000
E25   E   0.50000  0.88256  0.25000
E26   E   0.50000  0.88256  0.75000
E27   E   0.73267  0.00000  0.15673
E28   E   0.73267  0.50000  0.84327
E29   E   0.73267  0.61744  0.09327
E30   E   0.73267  0.88256  0.90673
E31   E   0.75000  0.75000  0.00000
E32   E   0.75000  0.75000  0.50000
E33   E   0.76733  0.00000  0.65673
E34   E   0.76733  0.50000  0.34327
E35   E   0.76733  0.61744  0.59327
E36   E   0.76733  0.88256  0.40673
loop_
