data_vmz_P121/c1  hall_number: 89, V_con: 8
_audit_creation_date              2025-03-05
_audit_creation_method            'MOFbuilder_1.0'
_symmetry_space_group_name_H-M    'P1'
_symmetry_Int_Tables_number       1
_symmetry_cell_setting            triclinic
loop_
_symmetry_equiv_pos_as_xyz
  x,y,z
_cell_length_a                    18.3897
_cell_length_b                    10.0
_cell_length_c                    19.3864
_cell_angle_alpha                 90.0
_cell_angle_beta                  108.8056
_cell_angle_gamma                 90.0
loop_
_atom_site_label
_atom_site_type_symbol
_atom_site_fract_x
_atom_site_fract_y
_atom_site_fract_z
V1    V   0.22223  0.12709  0.58171
V2    V   0.27777  0.12709  0.08171
V3    V   0.72223  0.87291  0.91829
V4    V   0.77777  0.87291  0.41829
E1    E   0.00000  0.00000  0.00000
E2    E   0.00000  0.00000  0.50000
E3    E   0.00000  0.12291  0.25000
E4    E   0.00000  0.87709  0.75000
E5    E   0.22223  0.25000  0.33171
E6    E   0.22223  0.62709  0.58171
E7    E   0.27777  0.25000  0.83171
E8    E   0.27777  0.62709  0.08171
E9    E   0.50000  0.00000  0.00000
E10   E   0.50000  0.00000  0.50000
E11   E   0.50000  0.12291  0.75000
E12   E   0.50000  0.87709  0.25000
E13   E   0.72223  0.37291  0.91829
E14   E   0.72223  0.75000  0.16829
E15   E   0.77777  0.37291  0.41829
E16   E   0.77777  0.75000  0.66829
loop_
