data_vnc_C12/c1  hall_number: 107, V_con: 9
_audit_creation_date              2025-03-05
_audit_creation_method            'MOFbuilder_1.0'
_symmetry_space_group_name_H-M    'P1'
_symmetry_Int_Tables_number       1
_symmetry_cell_setting            triclinic
loop_
_symmetry_equiv_pos_as_xyz
  x,y,z
_cell_length_a                    32.2509
_cell_length_b                    10.0
_cell_length_c                    19.8194
_cell_angle_alpha                 90.0
_cell_angle_beta                  92.405
_cell_angle_gamma                 90.0
loop_
_atom_site_label
_atom_site_type_symbol
_atom_site_fract_x
_atom_site_fract_y
_atom_site_fract_z
V1    V   0.13397  0.06706  0.86814
V2    V   0.13397  0.43294  0.13186
V3    V   0.36603  0.06706  0.36814
V4    V   0.36603  0.43294  0.63186
V5    V   0.63397  0.56706  0.36814
V6    V   0.63397  0.93294  0.63186
V7    V   0.86603  0.56706  0.86814
V8    V   0.86603  0.93294  0.13186
E1    E   0.00000  0.00000  0.00000
E2    E   0.00000  0.06706  0.75000
E3    E   0.00000  0.43294  0.25000
E4    E   0.00000  0.50000  0.00000
E5    E   0.00000  0.56706  0.75000
E6    E   0.00000  0.93294  0.25000
E7    E   0.13397  0.00000  0.11814
E8    E   0.13397  0.50000  0.88186
E9    E   0.13397  0.56706  0.86814
E10   E   0.13397  0.93294  0.13186
E11   E   0.25000  0.18294  0.25000
E12   E   0.25000  0.18294  0.75000
E13   E   0.25000  0.25000  0.00000
E14   E   0.25000  0.25000  0.50000
E15   E   0.25000  0.31706  0.25000
E16   E   0.25000  0.31706  0.75000
E17   E   0.36603  0.00000  0.61814
E18   E   0.36603  0.50000  0.38186
E19   E   0.36603  0.56706  0.36814
E20   E   0.36603  0.93294  0.63186
E21   E   0.50000  0.00000  0.50000
E22   E   0.50000  0.06706  0.25000
E23   E   0.50000  0.43294  0.75000
E24   E   0.50000  0.50000  0.50000
E25   E   0.50000  0.56706  0.25000
E26   E   0.50000  0.93294  0.75000
E27   E   0.63397  0.00000  0.38186
E28   E   0.63397  0.06706  0.36814
E29   E   0.63397  0.43294  0.63186
E30   E   0.63397  0.50000  0.61814
E31   E   0.75000  0.68294  0.25000
E32   E   0.75000  0.68294  0.75000
E33   E   0.75000  0.75000  0.00000
E34   E   0.75000  0.75000  0.50000
E35   E   0.75000  0.81706  0.25000
E36   E   0.75000  0.81706  0.75000
E37   E   0.86603  0.00000  0.88186
E38   E   0.86603  0.06706  0.86814
E39   E   0.86603  0.43294  0.13186
E40   E   0.86603  0.50000  0.11814
loop_
