data_vnd_I12/a1  hall_number: 107, V_con: 9
_audit_creation_date              2025-03-05
_audit_creation_method            'MOFbuilder_1.0'
_symmetry_space_group_name_H-M    'P1'
_symmetry_Int_Tables_number       1
_symmetry_cell_setting            triclinic
loop_
_symmetry_equiv_pos_as_xyz
  x,y,z
_cell_length_a                    32.2278
_cell_length_b                    10.0
_cell_length_c                    19.825200000000002
_cell_angle_alpha                 90.0
_cell_angle_beta                  91.7411
_cell_angle_gamma                 90.0
loop_
_atom_site_label
_atom_site_type_symbol
_atom_site_fract_x
_atom_site_fract_y
_atom_site_fract_z
V1    V   0.11597  0.68406  0.86617
V2    V   0.11597  0.81594  0.13383
V3    V   0.38403  0.68406  0.36617
V4    V   0.38403  0.81594  0.63383
V5    V   0.61597  0.18406  0.36617
V6    V   0.61597  0.31594  0.63383
V7    V   0.88403  0.18406  0.86617
V8    V   0.88403  0.31594  0.13383
E1    E   0.00000  0.00000  0.00000
E2    E   0.00000  0.06594  0.25000
E3    E   0.00000  0.43406  0.75000
E4    E   0.00000  0.50000  0.00000
E5    E   0.00000  0.56594  0.25000
E6    E   0.00000  0.93406  0.75000
E7    E   0.11597  0.18406  0.86617
E8    E   0.11597  0.31594  0.13383
E9    E   0.11597  0.75000  0.38383
E10   E   0.11597  0.75000  0.61617
E11   E   0.25000  0.68406  0.00000
E12   E   0.25000  0.68406  0.50000
E13   E   0.25000  0.75000  0.25000
E14   E   0.25000  0.75000  0.75000
E15   E   0.25000  0.81594  0.00000
E16   E   0.25000  0.81594  0.50000
E17   E   0.38403  0.18406  0.36617
E18   E   0.38403  0.31594  0.63383
E19   E   0.38403  0.75000  0.11617
E20   E   0.38403  0.75000  0.88383
E21   E   0.50000  0.00000  0.50000
E22   E   0.50000  0.06594  0.75000
E23   E   0.50000  0.43406  0.25000
E24   E   0.50000  0.50000  0.50000
E25   E   0.50000  0.56594  0.75000
E26   E   0.50000  0.93406  0.25000
E27   E   0.61597  0.25000  0.11617
E28   E   0.61597  0.25000  0.88383
E29   E   0.61597  0.68406  0.36617
E30   E   0.61597  0.81594  0.63383
E31   E   0.75000  0.18406  0.00000
E32   E   0.75000  0.18406  0.50000
E33   E   0.75000  0.25000  0.25000
E34   E   0.75000  0.25000  0.75000
E35   E   0.75000  0.31594  0.00000
E36   E   0.75000  0.31594  0.50000
E37   E   0.88403  0.25000  0.38383
E38   E   0.88403  0.25000  0.61617
E39   E   0.88403  0.68406  0.86617
E40   E   0.88403  0.81594  0.13383
loop_
