data_vni_C12/c1  hall_number: 107, V_con: 7
_audit_creation_date              2025-03-05
_audit_creation_method            'MOFbuilder_1.0'
_symmetry_space_group_name_H-M    'P1'
_symmetry_Int_Tables_number       1
_symmetry_cell_setting            triclinic
loop_
_symmetry_equiv_pos_as_xyz
  x,y,z
_cell_length_a                    26.9388
_cell_length_b                    9.9887
_cell_length_c                    26.8975
_cell_angle_alpha                 90.0
_cell_angle_beta                  94.0729
_cell_angle_gamma                 90.0
loop_
_atom_site_label
_atom_site_type_symbol
_atom_site_fract_x
_atom_site_fract_y
_atom_site_fract_z
V1    V   0.13431  0.12466  0.13042
V2    V   0.13431  0.37534  0.86958
V3    V   0.36569  0.12466  0.63042
V4    V   0.36569  0.37534  0.36958
V5    V   0.63431  0.62466  0.63042
V6    V   0.63431  0.87534  0.36958
V7    V   0.86569  0.62466  0.13042
V8    V   0.86569  0.87534  0.86958
E1    E   0.00000  0.00000  0.00000
E2    E   0.00000  0.12466  0.25000
E3    E   0.00000  0.37534  0.75000
E4    E   0.00000  0.50000  0.00000
E5    E   0.00000  0.62466  0.25000
E6    E   0.00000  0.87534  0.75000
E7    E   0.13431  0.62466  0.13042
E8    E   0.13431  0.87534  0.86958
E9    E   0.25000  0.25000  0.00000
E10   E   0.25000  0.25000  0.50000
E11   E   0.25000  0.62534  0.25000
E12   E   0.25000  0.62534  0.75000
E13   E   0.25000  0.87466  0.25000
E14   E   0.25000  0.87466  0.75000
E15   E   0.36569  0.62466  0.63042
E16   E   0.36569  0.87534  0.36958
E17   E   0.50000  0.00000  0.50000
E18   E   0.50000  0.12466  0.75000
E19   E   0.50000  0.37534  0.25000
E20   E   0.50000  0.50000  0.50000
E21   E   0.50000  0.62466  0.75000
E22   E   0.50000  0.87534  0.25000
E23   E   0.63431  0.12466  0.63042
E24   E   0.63431  0.37534  0.36958
E25   E   0.75000  0.12534  0.25000
E26   E   0.75000  0.12534  0.75000
E27   E   0.75000  0.37466  0.25000
E28   E   0.75000  0.37466  0.75000
E29   E   0.75000  0.75000  0.00000
E30   E   0.75000  0.75000  0.50000
E31   E   0.86569  0.12466  0.13042
E32   E   0.86569  0.37534  0.86958
loop_
