data_wal-x_Im-3  hall_number: 500, V_con: 10
_audit_creation_date              2025-03-05
_audit_creation_method            'MOFbuilder_1.0'
_symmetry_space_group_name_H-M    'P1'
_symmetry_Int_Tables_number       1
_symmetry_cell_setting            triclinic
loop_
_symmetry_equiv_pos_as_xyz
  x,y,z
_cell_length_a                    26.673399999999997
_cell_length_b                    26.673399999999997
_cell_length_c                    26.673399999999997
_cell_angle_alpha                 90.0
_cell_angle_beta                  90.0
_cell_angle_gamma                 90.0
loop_
_atom_site_label
_atom_site_type_symbol
_atom_site_fract_x
_atom_site_fract_y
_atom_site_fract_z
V1    V   0.00000  0.18421  0.30652
V2    V   0.00000  0.18421  0.69348
V3    V   0.00000  0.81579  0.30652
V4    V   0.00000  0.81579  0.69348
V5    V   0.18421  0.30652  0.00000
V6    V   0.18421  0.69348  0.00000
V7    V   0.19348  0.50000  0.31579
V8    V   0.19348  0.50000  0.68421
V9    V   0.30652  0.00000  0.18421
V10   V   0.30652  0.00000  0.81579
V11   V   0.31579  0.19348  0.50000
V12   V   0.31579  0.80652  0.50000
V13   V   0.50000  0.31579  0.19348
V14   V   0.50000  0.31579  0.80652
V15   V   0.50000  0.68421  0.19348
V16   V   0.50000  0.68421  0.80652
V17   V   0.68421  0.19348  0.50000
V18   V   0.68421  0.80652  0.50000
V19   V   0.69348  0.00000  0.18421
V20   V   0.69348  0.00000  0.81579
V21   V   0.80652  0.50000  0.31579
V22   V   0.80652  0.50000  0.68421
V23   V   0.81579  0.30652  0.00000
V24   V   0.81579  0.69348  0.00000
E1    E   0.00000  0.00000  0.30652
E2    E   0.00000  0.00000  0.69348
E3    E   0.00000  0.18421  0.50000
E4    E   0.00000  0.30652  0.00000
E5    E   0.00000  0.50000  0.31579
E6    E   0.00000  0.50000  0.68421
E7    E   0.00000  0.69348  0.00000
E8    E   0.00000  0.81579  0.50000
E9    E   0.09210  0.24536  0.15326
E10   E   0.09210  0.24536  0.84674
E11   E   0.09210  0.75464  0.15326
E12   E   0.09210  0.75464  0.84674
E13   E   0.09674  0.34210  0.31116
E14   E   0.09674  0.34210  0.68884
E15   E   0.09674  0.65790  0.31116
E16   E   0.09674  0.65790  0.68884
E17   E   0.15326  0.09210  0.24536
E18   E   0.15326  0.09210  0.75464
E19   E   0.15326  0.90790  0.24536
E20   E   0.15326  0.90790  0.75464
E21   E   0.15790  0.18884  0.40326
E22   E   0.15790  0.18884  0.59674
E23   E   0.15790  0.81116  0.40326
E24   E   0.15790  0.81116  0.59674
E25   E   0.18421  0.50000  0.00000
E26   E   0.18884  0.40326  0.15790
E27   E   0.18884  0.40326  0.84210
E28   E   0.18884  0.59674  0.15790
E29   E   0.18884  0.59674  0.84210
E30   E   0.19348  0.50000  0.50000
E31   E   0.24536  0.15326  0.09210
E32   E   0.24536  0.15326  0.90790
E33   E   0.24536  0.84674  0.09210
E34   E   0.24536  0.84674  0.90790
E35   E   0.25464  0.34674  0.40790
E36   E   0.25464  0.34674  0.59210
E37   E   0.25464  0.65326  0.40790
E38   E   0.25464  0.65326  0.59210
E39   E   0.30652  0.00000  0.00000
E40   E   0.31116  0.09674  0.34210
E41   E   0.31116  0.09674  0.65790
E42   E   0.31116  0.90326  0.34210
E43   E   0.31116  0.90326  0.65790
E44   E   0.31579  0.00000  0.50000
E45   E   0.34210  0.31116  0.09674
E46   E   0.34210  0.31116  0.90326
E47   E   0.34210  0.68884  0.09674
E48   E   0.34210  0.68884  0.90326
E49   E   0.34674  0.40790  0.25464
E50   E   0.34674  0.40790  0.74536
E51   E   0.34674  0.59210  0.25464
E52   E   0.34674  0.59210  0.74536
E53   E   0.40326  0.15790  0.18884
E54   E   0.40326  0.15790  0.81116
E55   E   0.40326  0.84210  0.18884
E56   E   0.40326  0.84210  0.81116
E57   E   0.40790  0.25464  0.34674
E58   E   0.40790  0.25464  0.65326
E59   E   0.40790  0.74536  0.34674
E60   E   0.40790  0.74536  0.65326
E61   E   0.50000  0.00000  0.18421
E62   E   0.50000  0.00000  0.81579
E63   E   0.50000  0.19348  0.50000
E64   E   0.50000  0.31579  0.00000
E65   E   0.50000  0.50000  0.19348
E66   E   0.50000  0.50000  0.80652
E67   E   0.50000  0.68421  0.00000
E68   E   0.50000  0.80652  0.50000
E69   E   0.59210  0.25464  0.34674
E70   E   0.59210  0.25464  0.65326
E71   E   0.59210  0.74536  0.34674
E72   E   0.59210  0.74536  0.65326
E73   E   0.59674  0.15790  0.18884
E74   E   0.59674  0.15790  0.81116
E75   E   0.59674  0.84210  0.18884
E76   E   0.59674  0.84210  0.81116
E77   E   0.65326  0.40790  0.25464
E78   E   0.65326  0.40790  0.74536
E79   E   0.65326  0.59210  0.25464
E80   E   0.65326  0.59210  0.74536
E81   E   0.65790  0.31116  0.09674
E82   E   0.65790  0.31116  0.90326
E83   E   0.65790  0.68884  0.09674
E84   E   0.65790  0.68884  0.90326
E85   E   0.68421  0.00000  0.50000
E86   E   0.68884  0.09674  0.34210
E87   E   0.68884  0.09674  0.65790
E88   E   0.68884  0.90326  0.34210
E89   E   0.68884  0.90326  0.65790
E90   E   0.69348  0.00000  0.00000
E91   E   0.74536  0.34674  0.40790
E92   E   0.74536  0.34674  0.59210
E93   E   0.74536  0.65326  0.40790
E94   E   0.74536  0.65326  0.59210
E95   E   0.75464  0.15326  0.09210
E96   E   0.75464  0.15326  0.90790
E97   E   0.75464  0.84674  0.09210
E98   E   0.75464  0.84674  0.90790
E99   E   0.80652  0.50000  0.50000
E100  E   0.81116  0.40326  0.15790
E101  E   0.81116  0.40326  0.84210
E102  E   0.81116  0.59674  0.15790
E103  E   0.81116  0.59674  0.84210
E104  E   0.81579  0.50000  0.00000
E105  E   0.84210  0.18884  0.40326
E106  E   0.84210  0.18884  0.59674
E107  E   0.84210  0.81116  0.40326
E108  E   0.84210  0.81116  0.59674
E109  E   0.84674  0.09210  0.24536
E110  E   0.84674  0.09210  0.75464
E111  E   0.84674  0.90790  0.24536
E112  E   0.84674  0.90790  0.75464
E113  E   0.90326  0.34210  0.31116
E114  E   0.90326  0.34210  0.68884
E115  E   0.90326  0.65790  0.31116
E116  E   0.90326  0.65790  0.68884
E117  E   0.90790  0.24536  0.15326
E118  E   0.90790  0.24536  0.84674
E119  E   0.90790  0.75464  0.15326
E120  E   0.90790  0.75464  0.84674
loop_
