data_wal_Im-3  hall_number: 500, V_con: 9
_audit_creation_date              2025-03-05
_audit_creation_method            'MOFbuilder_1.0'
_symmetry_space_group_name_H-M    'P1'
_symmetry_Int_Tables_number       1
_symmetry_cell_setting            triclinic
loop_
_symmetry_equiv_pos_as_xyz
  x,y,z
_cell_length_a                    26.8817
_cell_length_b                    26.8817
_cell_length_c                    26.8817
_cell_angle_alpha                 90.0
_cell_angle_beta                  90.0
_cell_angle_gamma                 90.0
loop_
_atom_site_label
_atom_site_type_symbol
_atom_site_fract_x
_atom_site_fract_y
_atom_site_fract_z
V1    V   0.00000  0.30095  0.18600
V2    V   0.00000  0.30095  0.81400
V3    V   0.00000  0.69905  0.18600
V4    V   0.00000  0.69905  0.81400
V5    V   0.18600  0.00000  0.30095
V6    V   0.18600  0.00000  0.69905
V7    V   0.19905  0.31400  0.50000
V8    V   0.19905  0.68600  0.50000
V9    V   0.30095  0.18600  0.00000
V10   V   0.30095  0.81400  0.00000
V11   V   0.31400  0.50000  0.19905
V12   V   0.31400  0.50000  0.80095
V13   V   0.50000  0.19905  0.31400
V14   V   0.50000  0.19905  0.68600
V15   V   0.50000  0.80095  0.31400
V16   V   0.50000  0.80095  0.68600
V17   V   0.68600  0.50000  0.19905
V18   V   0.68600  0.50000  0.80095
V19   V   0.69905  0.18600  0.00000
V20   V   0.69905  0.81400  0.00000
V21   V   0.80095  0.31400  0.50000
V22   V   0.80095  0.68600  0.50000
V23   V   0.81400  0.00000  0.30095
V24   V   0.81400  0.00000  0.69905
E1    E   0.00000  0.00000  0.30095
E2    E   0.00000  0.00000  0.69905
E3    E   0.00000  0.30095  0.00000
E4    E   0.00000  0.69905  0.00000
E5    E   0.09300  0.15048  0.24348
E6    E   0.09300  0.15048  0.75652
E7    E   0.09300  0.84952  0.24348
E8    E   0.09300  0.84952  0.75652
E9    E   0.09952  0.30748  0.34300
E10   E   0.09952  0.30748  0.65700
E11   E   0.09952  0.69252  0.34300
E12   E   0.09952  0.69252  0.65700
E13   E   0.15048  0.24348  0.09300
E14   E   0.15048  0.24348  0.90700
E15   E   0.15048  0.75652  0.09300
E16   E   0.15048  0.75652  0.90700
E17   E   0.15700  0.40048  0.19252
E18   E   0.15700  0.40048  0.80748
E19   E   0.15700  0.59952  0.19252
E20   E   0.15700  0.59952  0.80748
E21   E   0.19252  0.15700  0.40048
E22   E   0.19252  0.15700  0.59952
E23   E   0.19252  0.84300  0.40048
E24   E   0.19252  0.84300  0.59952
E25   E   0.19905  0.50000  0.50000
E26   E   0.24348  0.09300  0.15048
E27   E   0.24348  0.09300  0.84952
E28   E   0.24348  0.90700  0.15048
E29   E   0.24348  0.90700  0.84952
E30   E   0.25652  0.40700  0.34952
E31   E   0.25652  0.40700  0.65048
E32   E   0.25652  0.59300  0.34952
E33   E   0.25652  0.59300  0.65048
E34   E   0.30095  0.00000  0.00000
E35   E   0.30748  0.34300  0.09952
E36   E   0.30748  0.34300  0.90048
E37   E   0.30748  0.65700  0.09952
E38   E   0.30748  0.65700  0.90048
E39   E   0.34300  0.09952  0.30748
E40   E   0.34300  0.09952  0.69252
E41   E   0.34300  0.90048  0.30748
E42   E   0.34300  0.90048  0.69252
E43   E   0.34952  0.25652  0.40700
E44   E   0.34952  0.25652  0.59300
E45   E   0.34952  0.74348  0.40700
E46   E   0.34952  0.74348  0.59300
E47   E   0.40048  0.19252  0.15700
E48   E   0.40048  0.19252  0.84300
E49   E   0.40048  0.80748  0.15700
E50   E   0.40048  0.80748  0.84300
E51   E   0.40700  0.34952  0.25652
E52   E   0.40700  0.34952  0.74348
E53   E   0.40700  0.65048  0.25652
E54   E   0.40700  0.65048  0.74348
E55   E   0.50000  0.19905  0.50000
E56   E   0.50000  0.50000  0.19905
E57   E   0.50000  0.50000  0.80095
E58   E   0.50000  0.80095  0.50000
E59   E   0.59300  0.34952  0.25652
E60   E   0.59300  0.34952  0.74348
E61   E   0.59300  0.65048  0.25652
E62   E   0.59300  0.65048  0.74348
E63   E   0.59952  0.19252  0.15700
E64   E   0.59952  0.19252  0.84300
E65   E   0.59952  0.80748  0.15700
E66   E   0.59952  0.80748  0.84300
E67   E   0.65048  0.25652  0.40700
E68   E   0.65048  0.25652  0.59300
E69   E   0.65048  0.74348  0.40700
E70   E   0.65048  0.74348  0.59300
E71   E   0.65700  0.09952  0.30748
E72   E   0.65700  0.09952  0.69252
E73   E   0.65700  0.90048  0.30748
E74   E   0.65700  0.90048  0.69252
E75   E   0.69252  0.34300  0.09952
E76   E   0.69252  0.34300  0.90048
E77   E   0.69252  0.65700  0.09952
E78   E   0.69252  0.65700  0.90048
E79   E   0.69905  0.00000  0.00000
E80   E   0.74348  0.40700  0.34952
E81   E   0.74348  0.40700  0.65048
E82   E   0.74348  0.59300  0.34952
E83   E   0.74348  0.59300  0.65048
E84   E   0.75652  0.09300  0.15048
E85   E   0.75652  0.09300  0.84952
E86   E   0.75652  0.90700  0.15048
E87   E   0.75652  0.90700  0.84952
E88   E   0.80095  0.50000  0.50000
E89   E   0.80748  0.15700  0.40048
E90   E   0.80748  0.15700  0.59952
E91   E   0.80748  0.84300  0.40048
E92   E   0.80748  0.84300  0.59952
E93   E   0.84300  0.40048  0.19252
E94   E   0.84300  0.40048  0.80748
E95   E   0.84300  0.59952  0.19252
E96   E   0.84300  0.59952  0.80748
E97   E   0.84952  0.24348  0.09300
E98   E   0.84952  0.24348  0.90700
E99   E   0.84952  0.75652  0.09300
E100  E   0.84952  0.75652  0.90700
E101  E   0.90048  0.30748  0.34300
E102  E   0.90048  0.30748  0.65700
E103  E   0.90048  0.69252  0.34300
E104  E   0.90048  0.69252  0.65700
E105  E   0.90700  0.15048  0.24348
E106  E   0.90700  0.15048  0.75652
E107  E   0.90700  0.84952  0.24348
E108  E   0.90700  0.84952  0.75652
loop_
