data_wfa_P4/ncc:2  hall_number: 411, V_con: 4
_audit_creation_date              2025-03-05
_audit_creation_method            'MOFbuilder_1.0'
_symmetry_space_group_name_H-M    'P1'
_symmetry_Int_Tables_number       1
_symmetry_cell_setting            triclinic
loop_
_symmetry_equiv_pos_as_xyz
  x,y,z
_cell_length_a                    33.4645
_cell_length_b                    33.4645
_cell_length_c                    14.782200000000001
_cell_angle_alpha                 90.0
_cell_angle_beta                  90.0
_cell_angle_gamma                 90.0
loop_
_atom_site_label
_atom_site_type_symbol
_atom_site_fract_x
_atom_site_fract_y
_atom_site_fract_z
V1    V   0.00156  0.64936  0.50826
V2    V   0.00156  0.85064  0.00826
V3    V   0.14936  0.50156  0.99174
V4    V   0.14936  0.99844  0.49174
V5    V   0.35064  0.50156  0.49174
V6    V   0.35064  0.99844  0.99174
V7    V   0.49844  0.64936  0.00826
V8    V   0.49844  0.85064  0.50826
V9    V   0.50156  0.14936  0.49174
V10   V   0.50156  0.35064  0.99174
V11   V   0.64936  0.00156  0.00826
V12   V   0.64936  0.49844  0.50826
V13   V   0.85064  0.00156  0.50826
V14   V   0.85064  0.49844  0.00826
V15   V   0.99844  0.14936  0.99174
V16   V   0.99844  0.35064  0.49174
E1    E   0.00000  0.00000  0.00000
E2    E   0.00000  0.00000  0.50000
E3    E   0.00000  0.50000  0.00000
E4    E   0.00000  0.50000  0.50000
E5    E   0.00156  0.75000  0.25826
E6    E   0.00156  0.75000  0.75826
E7    E   0.07546  0.57546  0.75000
E8    E   0.07546  0.92454  0.25000
E9    E   0.07546  0.57546  0.75000
E10   E   0.07546  0.92454  0.25000
E11   E   0.25000  0.50156  0.24174
E12   E   0.25000  0.50156  0.74174
E13   E   0.25000  0.99844  0.24174
E14   E   0.25000  0.99844  0.74174
E15   E   0.42454  0.57546  0.25000
E16   E   0.42454  0.92454  0.75000
E17   E   0.49844  0.75000  0.25826
E18   E   0.49844  0.75000  0.75826
E19   E   0.50000  0.00000  0.00000
E20   E   0.50000  0.00000  0.50000
E21   E   0.50000  0.50000  0.00000
E22   E   0.50000  0.50000  0.50000
E23   E   0.50156  0.25000  0.24174
E24   E   0.50156  0.25000  0.74174
E25   E   0.57546  0.07546  0.25000
E26   E   0.57546  0.07546  0.25000
E27   E   0.57546  0.42454  0.75000
E28   E   0.75000  0.00156  0.25826
E29   E   0.75000  0.00156  0.75826
E30   E   0.75000  0.49844  0.25826
E31   E   0.75000  0.49844  0.75826
E32   E   0.92454  0.07546  0.75000
E33   E   0.92454  0.07546  0.75000
E34   E   0.92454  0.42454  0.25000
E35   E   0.99844  0.25000  0.24174
E36   E   0.99844  0.25000  0.74174
loop_
