data_wfb_P42/n:2  hall_number: 362, V_con: 9
_audit_creation_date              2025-03-05
_audit_creation_method            'MOFbuilder_1.0'
_symmetry_space_group_name_H-M    'P1'
_symmetry_Int_Tables_number       1
_symmetry_cell_setting            triclinic
loop_
_symmetry_equiv_pos_as_xyz
  x,y,z
_cell_length_a                    25.3543
_cell_length_b                    25.3543
_cell_length_c                    9.9999
_cell_angle_alpha                 90.0
_cell_angle_beta                  90.0
_cell_angle_gamma                 90.0
loop_
_atom_site_label
_atom_site_type_symbol
_atom_site_fract_x
_atom_site_fract_y
_atom_site_fract_z
V1    V   0.01778  0.81639  0.82321
V2    V   0.18361  0.51778  0.32321
V3    V   0.31639  0.98222  0.32321
V4    V   0.48222  0.68361  0.82321
V5    V   0.51778  0.31639  0.17679
V6    V   0.68361  0.01778  0.67679
V7    V   0.81639  0.48222  0.67679
V8    V   0.98222  0.18361  0.17679
E1    E   0.00000  0.00000  0.00000
E2    E   0.00000  0.50000  0.50000
E3    E   0.01778  0.81639  0.32321
E4    E   0.08292  0.35069  0.25000
E5    E   0.10069  0.66708  0.07321
E6    E   0.10069  0.66708  0.57321
E7    E   0.14931  0.08292  0.25000
E8    E   0.16708  0.89931  0.07321
E9    E   0.16708  0.89931  0.57321
E10   E   0.18361  0.51778  0.82321
E11   E   0.31639  0.98222  0.82321
E12   E   0.33292  0.60069  0.07321
E13   E   0.33292  0.60069  0.57321
E14   E   0.35069  0.41708  0.25000
E15   E   0.39931  0.83292  0.07321
E16   E   0.39931  0.83292  0.57321
E17   E   0.41708  0.14931  0.25000
E18   E   0.48222  0.68361  0.32321
E19   E   0.50000  0.00000  0.50000
E20   E   0.50000  0.50000  0.00000
E21   E   0.51778  0.31639  0.67679
E22   E   0.58292  0.85069  0.75000
E23   E   0.60069  0.16708  0.42679
E24   E   0.60069  0.16708  0.92679
E25   E   0.64931  0.58292  0.75000
E26   E   0.66708  0.39931  0.42679
E27   E   0.66708  0.39931  0.92679
E28   E   0.68361  0.01778  0.17679
E29   E   0.81639  0.48222  0.17679
E30   E   0.83292  0.10069  0.42679
E31   E   0.83292  0.10069  0.92679
E32   E   0.85069  0.91708  0.75000
E33   E   0.89931  0.33292  0.42679
E34   E   0.89931  0.33292  0.92679
E35   E   0.91708  0.64931  0.75000
E36   E   0.98222  0.18361  0.67679
loop_
