data_wfd_I4/m  hall_number: 363, V_con: 8
_audit_creation_date              2025-03-05
_audit_creation_method            'MOFbuilder_1.0'
_symmetry_space_group_name_H-M    'P1'
_symmetry_Int_Tables_number       1
_symmetry_cell_setting            triclinic
loop_
_symmetry_equiv_pos_as_xyz
  x,y,z
_cell_length_a                    22.9039
_cell_length_b                    22.9039
_cell_length_c                    13.5341
_cell_angle_alpha                 90.0
_cell_angle_beta                  90.0
_cell_angle_gamma                 90.0
loop_
_atom_site_label
_atom_site_type_symbol
_atom_site_fract_x
_atom_site_fract_y
_atom_site_fract_z
V1    V   0.09531  0.70635  0.50000
V2    V   0.20635  0.40469  0.00000
V3    V   0.29365  0.09531  0.50000
V4    V   0.40469  0.79365  0.00000
V5    V   0.59531  0.20635  0.00000
V6    V   0.70635  0.90469  0.50000
V7    V   0.79365  0.59531  0.00000
V8    V   0.90469  0.29365  0.50000
E1    E   0.05552  0.34917  0.25000
E2    E   0.05552  0.34917  0.75000
E3    E   0.09917  0.19448  0.50000
E4    E   0.15083  0.55552  0.25000
E5    E   0.15083  0.55552  0.75000
E6    E   0.19448  0.90083  0.50000
E7    E   0.25000  0.25000  0.25000
E8    E   0.25000  0.25000  0.75000
E9    E   0.25000  0.75000  0.25000
E10   E   0.25000  0.75000  0.75000
E11   E   0.30552  0.59917  0.00000
E12   E   0.34917  0.94448  0.25000
E13   E   0.34917  0.94448  0.75000
E14   E   0.40083  0.30552  0.00000
E15   E   0.44448  0.15083  0.25000
E16   E   0.44448  0.15083  0.75000
E17   E   0.55552  0.84917  0.25000
E18   E   0.55552  0.84917  0.75000
E19   E   0.59917  0.69448  0.00000
E20   E   0.65083  0.05552  0.25000
E21   E   0.65083  0.05552  0.75000
E22   E   0.69448  0.40083  0.00000
E23   E   0.75000  0.25000  0.25000
E24   E   0.75000  0.25000  0.75000
E25   E   0.75000  0.75000  0.25000
E26   E   0.75000  0.75000  0.75000
E27   E   0.80552  0.09917  0.50000
E28   E   0.84917  0.44448  0.25000
E29   E   0.84917  0.44448  0.75000
E30   E   0.90083  0.80552  0.50000
E31   E   0.94448  0.65083  0.25000
E32   E   0.94448  0.65083  0.75000
loop_
