data_wfe_P42/n:2  hall_number: 362, V_con: 8
_audit_creation_date              2025-03-05
_audit_creation_method            'MOFbuilder_1.0'
_symmetry_space_group_name_H-M    'P1'
_symmetry_Int_Tables_number       1
_symmetry_cell_setting            triclinic
loop_
_symmetry_equiv_pos_as_xyz
  x,y,z
_cell_length_a                    23.005
_cell_length_b                    23.005
_cell_length_c                    14.142
_cell_angle_alpha                 90.0
_cell_angle_beta                  90.0
_cell_angle_gamma                 90.0
loop_
_atom_site_label
_atom_site_type_symbol
_atom_site_fract_x
_atom_site_fract_y
_atom_site_fract_z
V1    V   0.04327  0.81709  0.82246
V2    V   0.18291  0.54327  0.32246
V3    V   0.31709  0.95673  0.32246
V4    V   0.45673  0.68291  0.82246
V5    V   0.54327  0.31709  0.17754
V6    V   0.68291  0.04327  0.67754
V7    V   0.81709  0.45673  0.67754
V8    V   0.95673  0.18291  0.17754
E1    E   0.00000  0.00000  0.00000
E2    E   0.00000  0.50000  0.50000
E3    E   0.06982  0.36309  0.25000
E4    E   0.11309  0.68018  0.07246
E5    E   0.11309  0.68018  0.57246
E6    E   0.13691  0.06982  0.25000
E7    E   0.18018  0.88691  0.07246
E8    E   0.18018  0.88691  0.57246
E9    E   0.25000  0.75000  0.32246
E10   E   0.25000  0.75000  0.82246
E11   E   0.31982  0.61309  0.07246
E12   E   0.31982  0.61309  0.57246
E13   E   0.36309  0.43018  0.25000
E14   E   0.38691  0.81982  0.07246
E15   E   0.38691  0.81982  0.57246
E16   E   0.43018  0.13691  0.25000
E17   E   0.50000  0.00000  0.50000
E18   E   0.50000  0.50000  0.00000
E19   E   0.56982  0.86309  0.75000
E20   E   0.61309  0.18018  0.42754
E21   E   0.61309  0.18018  0.92754
E22   E   0.63691  0.56982  0.75000
E23   E   0.68018  0.38691  0.42754
E24   E   0.68018  0.38691  0.92754
E25   E   0.75000  0.25000  0.17754
E26   E   0.75000  0.25000  0.67754
E27   E   0.81982  0.11309  0.42754
E28   E   0.81982  0.11309  0.92754
E29   E   0.86309  0.93018  0.75000
E30   E   0.88691  0.31982  0.42754
E31   E   0.88691  0.31982  0.92754
E32   E   0.93018  0.63691  0.75000
loop_
