data_wfh_P4/ncc:2  hall_number: 411, V_con: 8
_audit_creation_date              2025-03-05
_audit_creation_method            'MOFbuilder_1.0'
_symmetry_space_group_name_H-M    'P1'
_symmetry_Int_Tables_number       1
_symmetry_cell_setting            triclinic
loop_
_symmetry_equiv_pos_as_xyz
  x,y,z
_cell_length_a                    29.8482
_cell_length_b                    29.8482
_cell_length_c                    16.817800000000002
_cell_angle_alpha                 90.0
_cell_angle_beta                  90.0
_cell_angle_gamma                 90.0
loop_
_atom_site_label
_atom_site_type_symbol
_atom_site_fract_x
_atom_site_fract_y
_atom_site_fract_z
V1    V   0.03113  0.15934  0.92677
V2    V   0.03113  0.34066  0.42677
V3    V   0.15934  0.03113  0.42677
V4    V   0.15934  0.46887  0.92677
V5    V   0.34066  0.03113  0.92677
V6    V   0.34066  0.46887  0.42677
V7    V   0.46887  0.15934  0.42677
V8    V   0.46887  0.34066  0.92677
V9    V   0.53113  0.65934  0.07323
V10   V   0.53113  0.84066  0.57323
V11   V   0.65934  0.53113  0.57323
V12   V   0.65934  0.96887  0.07323
V13   V   0.84066  0.53113  0.07323
V14   V   0.84066  0.96887  0.57323
V15   V   0.96887  0.65934  0.57323
V16   V   0.96887  0.84066  0.07323
E1    E   0.00000  0.00000  0.00000
E2    E   0.00000  0.00000  0.50000
E3    E   0.00000  0.50000  0.00000
E4    E   0.00000  0.50000  0.50000
E5    E   0.03113  0.25000  0.17677
E6    E   0.03113  0.25000  0.67677
E7    E   0.06411  0.56411  0.75000
E8    E   0.06411  0.93589  0.25000
E9    E   0.09524  0.09524  0.17677
E10   E   0.09524  0.09524  0.67677
E11   E   0.09524  0.18589  0.42677
E12   E   0.09524  0.31411  0.92677
E13   E   0.09524  0.40476  0.17677
E14   E   0.09524  0.40476  0.67677
E15   E   0.18589  0.09524  0.92677
E16   E   0.18589  0.40476  0.42677
E17   E   0.25000  0.03113  0.17677
E18   E   0.25000  0.03113  0.67677
E19   E   0.25000  0.46887  0.17677
E20   E   0.25000  0.46887  0.67677
E21   E   0.31411  0.09524  0.42677
E22   E   0.31411  0.40476  0.92677
E23   E   0.40476  0.09524  0.17677
E24   E   0.40476  0.09524  0.67677
E25   E   0.40476  0.18589  0.92677
E26   E   0.40476  0.31411  0.42677
E27   E   0.40476  0.40476  0.17677
E28   E   0.40476  0.40476  0.67677
E29   E   0.43589  0.56411  0.25000
E30   E   0.43589  0.93589  0.75000
E31   E   0.46887  0.25000  0.17677
E32   E   0.46887  0.25000  0.67677
E33   E   0.50000  0.00000  0.00000
E34   E   0.50000  0.00000  0.50000
E35   E   0.50000  0.50000  0.00000
E36   E   0.50000  0.50000  0.50000
E37   E   0.53113  0.75000  0.32323
E38   E   0.53113  0.75000  0.82323
E39   E   0.56411  0.06411  0.25000
E40   E   0.56411  0.43589  0.75000
E41   E   0.59524  0.59524  0.32323
E42   E   0.59524  0.59524  0.82323
E43   E   0.59524  0.68589  0.57323
E44   E   0.59524  0.81411  0.07323
E45   E   0.59524  0.90476  0.32323
E46   E   0.59524  0.90476  0.82323
E47   E   0.68589  0.59524  0.07323
E48   E   0.68589  0.90476  0.57323
E49   E   0.75000  0.53113  0.32323
E50   E   0.75000  0.53113  0.82323
E51   E   0.75000  0.96887  0.32323
E52   E   0.75000  0.96887  0.82323
E53   E   0.81411  0.59524  0.57323
E54   E   0.81411  0.90476  0.07323
E55   E   0.90476  0.59524  0.32323
E56   E   0.90476  0.59524  0.82323
E57   E   0.90476  0.68589  0.07323
E58   E   0.90476  0.81411  0.57323
E59   E   0.90476  0.90476  0.32323
E60   E   0.90476  0.90476  0.82323
E61   E   0.93589  0.06411  0.75000
E62   E   0.93589  0.43589  0.25000
E63   E   0.96887  0.75000  0.32323
E64   E   0.96887  0.75000  0.82323
loop_
