data_wfi_P41212  hall_number: 369, V_con: 8
_audit_creation_date              2025-03-05
_audit_creation_method            'MOFbuilder_1.0'
_symmetry_space_group_name_H-M    'P1'
_symmetry_Int_Tables_number       1
_symmetry_cell_setting            triclinic
loop_
_symmetry_equiv_pos_as_xyz
  x,y,z
_cell_length_a                    13.5998
_cell_length_b                    13.5998
_cell_length_c                    37.336299999999994
_cell_angle_alpha                 90.0
_cell_angle_beta                  90.0
_cell_angle_gamma                 90.0
loop_
_atom_site_label
_atom_site_type_symbol
_atom_site_fract_x
_atom_site_fract_y
_atom_site_fract_z
V1    V   0.13192  0.63193  0.53673
V2    V   0.13193  0.36808  0.28673
V3    V   0.36807  0.86808  0.96327
V4    V   0.36808  0.13193  0.71327
V5    V   0.63192  0.86807  0.21327
V6    V   0.63193  0.13192  0.46327
V7    V   0.86807  0.63192  0.78673
V8    V   0.86808  0.36807  0.03673
E1    E   0.00000  0.36808  0.16173
E2    E   0.00000  0.63192  0.66173
E3    E   0.11807  0.75000  0.87500
E4    E   0.11808  0.11808  0.00000
E5    E   0.11808  0.38192  0.75000
E6    E   0.11808  0.88192  0.75000
E7    E   0.11808  0.11808  0.00000
E8    E   0.11808  0.61808  0.00000
E9    E   0.13192  0.50000  0.41173
E10   E   0.25000  0.38193  0.62500
E11   E   0.25000  0.88193  0.62500
E12   E   0.36808  0.00000  0.83827
E13   E   0.38192  0.11808  0.25000
E14   E   0.38192  0.38192  0.50000
E15   E   0.38192  0.61808  0.25000
E16   E   0.38192  0.88192  0.50000
E17   E   0.38192  0.61808  0.25000
E18   E   0.38193  0.25000  0.37500
E19   E   0.50000  0.13192  0.58827
E20   E   0.50000  0.86808  0.08827
E21   E   0.61807  0.75000  0.87500
E22   E   0.61808  0.11808  0.00000
E23   E   0.61808  0.38192  0.75000
E24   E   0.61808  0.38192  0.75000
E25   E   0.61808  0.61808  0.00000
E26   E   0.61808  0.88192  0.75000
E27   E   0.63192  0.00000  0.33827
E28   E   0.75000  0.11807  0.12500
E29   E   0.75000  0.61807  0.12500
E30   E   0.86808  0.50000  0.91173
E31   E   0.88192  0.11808  0.25000
E32   E   0.88192  0.38192  0.50000
E33   E   0.88192  0.61808  0.25000
E34   E   0.88192  0.88192  0.50000
E35   E   0.88193  0.25000  0.37500
loop_
