data_wfm_I41/amd:2  hall_number: 427, V_con: 8
_audit_creation_date              2025-03-05
_audit_creation_method            'MOFbuilder_1.0'
_symmetry_space_group_name_H-M    'P1'
_symmetry_Int_Tables_number       1
_symmetry_cell_setting            triclinic
loop_
_symmetry_equiv_pos_as_xyz
  x,y,z
_cell_length_a                    22.8918
_cell_length_b                    22.8918
_cell_length_c                    23.1346
_cell_angle_alpha                 90.0
_cell_angle_beta                  90.0
_cell_angle_gamma                 90.0
loop_
_atom_site_label
_atom_site_type_symbol
_atom_site_fract_x
_atom_site_fract_y
_atom_site_fract_z
V1    V   0.00000  0.03158  0.21385
V2    V   0.00000  0.46842  0.21385
V3    V   0.00000  0.53158  0.78615
V4    V   0.00000  0.96842  0.78615
V5    V   0.21842  0.25000  0.53615
V6    V   0.21842  0.75000  0.46385
V7    V   0.28158  0.25000  0.96385
V8    V   0.28158  0.75000  0.03615
V9    V   0.50000  0.03158  0.28615
V10   V   0.50000  0.46842  0.28615
V11   V   0.50000  0.53158  0.71385
V12   V   0.50000  0.96842  0.71385
V13   V   0.71842  0.25000  0.96385
V14   V   0.71842  0.75000  0.03615
V15   V   0.78158  0.25000  0.53615
V16   V   0.78158  0.75000  0.46385
E1    E   0.00000  0.00000  0.00000
E2    E   0.00000  0.25000  0.21385
E3    E   0.00000  0.25000  0.53615
E4    E   0.00000  0.50000  0.00000
E5    E   0.00000  0.75000  0.46385
E6    E   0.00000  0.75000  0.78615
E7    E   0.10921  0.10921  0.66115
E8    E   0.10921  0.39079  0.66115
E9    E   0.10921  0.60921  0.33885
E10   E   0.10921  0.89079  0.33885
E11   E   0.14079  0.10921  0.87500
E12   E   0.14079  0.14079  0.08885
E13   E   0.14079  0.35921  0.08885
E14   E   0.14079  0.39079  0.87500
E15   E   0.14079  0.60921  0.12500
E16   E   0.14079  0.64079  0.91115
E17   E   0.14079  0.85921  0.91115
E18   E   0.14079  0.89079  0.12500
E19   E   0.25000  0.25000  0.75000
E20   E   0.25000  0.75000  0.25000
E21   E   0.35921  0.10921  0.62500
E22   E   0.35921  0.14079  0.41115
E23   E   0.35921  0.35921  0.41115
E24   E   0.35921  0.39079  0.62500
E25   E   0.35921  0.60921  0.37500
E26   E   0.35921  0.64079  0.58885
E27   E   0.35921  0.85921  0.58885
E28   E   0.35921  0.89079  0.37500
E29   E   0.39079  0.10921  0.83885
E30   E   0.39079  0.39079  0.83885
E31   E   0.39079  0.60921  0.16115
E32   E   0.39079  0.89079  0.16115
E33   E   0.50000  0.00000  0.50000
E34   E   0.50000  0.25000  0.28615
E35   E   0.50000  0.25000  0.96385
E36   E   0.50000  0.50000  0.50000
E37   E   0.50000  0.75000  0.03615
E38   E   0.50000  0.75000  0.71385
E39   E   0.60921  0.10921  0.83885
E40   E   0.60921  0.39079  0.83885
E41   E   0.60921  0.60921  0.16115
E42   E   0.60921  0.89079  0.16115
E43   E   0.64079  0.10921  0.62500
E44   E   0.64079  0.14079  0.41115
E45   E   0.64079  0.35921  0.41115
E46   E   0.64079  0.39079  0.62500
E47   E   0.64079  0.60921  0.37500
E48   E   0.64079  0.64079  0.58885
E49   E   0.64079  0.85921  0.58885
E50   E   0.64079  0.89079  0.37500
E51   E   0.75000  0.25000  0.75000
E52   E   0.75000  0.75000  0.25000
E53   E   0.85921  0.10921  0.87500
E54   E   0.85921  0.14079  0.08885
E55   E   0.85921  0.35921  0.08885
E56   E   0.85921  0.39079  0.87500
E57   E   0.85921  0.60921  0.12500
E58   E   0.85921  0.64079  0.91115
E59   E   0.85921  0.85921  0.91115
E60   E   0.85921  0.89079  0.12500
E61   E   0.89079  0.10921  0.66115
E62   E   0.89079  0.39079  0.66115
E63   E   0.89079  0.60921  0.33885
E64   E   0.89079  0.89079  0.33885
loop_
