data_wfn_I41/a:2  hall_number: 365, V_con: 8
_audit_creation_date              2025-03-05
_audit_creation_method            'MOFbuilder_1.0'
_symmetry_space_group_name_H-M    'P1'
_symmetry_Int_Tables_number       1
_symmetry_cell_setting            triclinic
loop_
_symmetry_equiv_pos_as_xyz
  x,y,z
_cell_length_a                    19.436700000000002
_cell_length_b                    19.436700000000002
_cell_length_c                    37.7122
_cell_angle_alpha                 90.0
_cell_angle_beta                  90.0
_cell_angle_gamma                 90.0
loop_
_atom_site_label
_atom_site_type_symbol
_atom_site_fract_x
_atom_site_fract_y
_atom_site_fract_z
V1    V   0.13236  0.02941  0.71875
V2    V   0.13236  0.52941  0.28125
V3    V   0.22059  0.38236  0.53125
V4    V   0.22059  0.88236  0.46875
V5    V   0.27941  0.11764  0.96875
V6    V   0.27941  0.61764  0.03125
V7    V   0.36764  0.47059  0.78125
V8    V   0.36764  0.97059  0.21875
V9    V   0.63236  0.02941  0.78125
V10   V   0.63236  0.52941  0.21875
V11   V   0.72059  0.38236  0.96875
V12   V   0.72059  0.88236  0.03125
V13   V   0.77941  0.11764  0.53125
V14   V   0.77941  0.61764  0.46875
V15   V   0.86764  0.47059  0.71875
V16   V   0.86764  0.97059  0.28125
E1    E   0.00000  0.00000  0.50000
E2    E   0.00000  0.25000  0.53125
E3    E   0.00000  0.25000  0.71875
E4    E   0.00000  0.50000  0.50000
E5    E   0.00000  0.75000  0.28125
E6    E   0.00000  0.75000  0.46875
E7    E   0.04411  0.42647  0.62500
E8    E   0.04411  0.92647  0.37500
E9    E   0.11764  0.47059  0.75000
E10   E   0.11764  0.97059  0.25000
E11   E   0.17647  0.20589  0.62500
E12   E   0.17647  0.70589  0.37500
E13   E   0.17647  0.45589  0.40625
E14   E   0.17647  0.95589  0.59375
E15   E   0.20589  0.07353  0.84375
E16   E   0.20589  0.57353  0.15625
E17   E   0.22059  0.13236  0.50000
E18   E   0.22059  0.63236  0.50000
E19   E   0.25000  0.25000  0.75000
E20   E   0.25000  0.75000  0.25000
E21   E   0.27941  0.36764  0.00000
E22   E   0.27941  0.86764  0.00000
E23   E   0.29411  0.42647  0.65625
E24   E   0.29411  0.92647  0.34375
E25   E   0.32353  0.04411  0.09375
E26   E   0.32353  0.54411  0.90625
E27   E   0.32353  0.29411  0.87500
E28   E   0.32353  0.79411  0.12500
E29   E   0.38236  0.02941  0.75000
E30   E   0.38236  0.52941  0.25000
E31   E   0.45589  0.07353  0.87500
E32   E   0.45589  0.57353  0.12500
E33   E   0.50000  0.00000  0.00000
E34   E   0.50000  0.25000  0.78125
E35   E   0.50000  0.25000  0.96875
E36   E   0.50000  0.50000  0.00000
E37   E   0.50000  0.75000  0.03125
E38   E   0.50000  0.75000  0.21875
E39   E   0.54411  0.42647  0.87500
E40   E   0.54411  0.92647  0.12500
E41   E   0.61764  0.47059  0.75000
E42   E   0.61764  0.97059  0.25000
E43   E   0.67647  0.20589  0.87500
E44   E   0.67647  0.45589  0.09375
E45   E   0.67647  0.70589  0.12500
E46   E   0.67647  0.95589  0.90625
E47   E   0.70589  0.07353  0.65625
E48   E   0.70589  0.57353  0.34375
E49   E   0.72059  0.13236  0.00000
E50   E   0.72059  0.63236  0.00000
E51   E   0.75000  0.25000  0.75000
E52   E   0.75000  0.75000  0.25000
E53   E   0.77941  0.36764  0.50000
E54   E   0.77941  0.86764  0.50000
E55   E   0.79411  0.42647  0.84375
E56   E   0.79411  0.92647  0.15625
E57   E   0.82353  0.04411  0.40625
E58   E   0.82353  0.29411  0.62500
E59   E   0.82353  0.54411  0.59375
E60   E   0.82353  0.79411  0.37500
E61   E   0.88236  0.02941  0.75000
E62   E   0.88236  0.52941  0.25000
E63   E   0.95589  0.07353  0.62500
E64   E   0.95589  0.57353  0.37500
loop_
