data_wfo_I41/a:2  hall_number: 365, V_con: 8
_audit_creation_date              2025-03-05
_audit_creation_method            'MOFbuilder_1.0'
_symmetry_space_group_name_H-M    'P1'
_symmetry_Int_Tables_number       1
_symmetry_cell_setting            triclinic
loop_
_symmetry_equiv_pos_as_xyz
  x,y,z
_cell_length_a                    18.5431
_cell_length_b                    18.5431
_cell_length_c                    38.3906
_cell_angle_alpha                 90.0
_cell_angle_beta                  90.0
_cell_angle_gamma                 90.0
loop_
_atom_site_label
_atom_site_type_symbol
_atom_site_fract_x
_atom_site_fract_y
_atom_site_fract_z
V1    V   0.14542  0.02293  0.79880
V2    V   0.14542  0.52293  0.20120
V3    V   0.22707  0.39542  0.45120
V4    V   0.22707  0.89542  0.54880
V5    V   0.27293  0.10458  0.04880
V6    V   0.27293  0.60458  0.95120
V7    V   0.35458  0.47707  0.70120
V8    V   0.35458  0.97707  0.29880
V9    V   0.64542  0.02293  0.70120
V10   V   0.64542  0.52293  0.29880
V11   V   0.72707  0.39542  0.04880
V12   V   0.72707  0.89542  0.95120
V13   V   0.77293  0.10458  0.45120
V14   V   0.77293  0.60458  0.54880
V15   V   0.85458  0.47707  0.79880
V16   V   0.85458  0.97707  0.20120
E1    E   0.00000  0.00000  0.50000
E2    E   0.00000  0.25000  0.45120
E3    E   0.00000  0.25000  0.79880
E4    E   0.00000  0.50000  0.50000
E5    E   0.00000  0.75000  0.20120
E6    E   0.00000  0.75000  0.54880
E7    E   0.06376  0.04083  0.12500
E8    E   0.06376  0.54083  0.87500
E9    E   0.10458  0.47707  0.75000
E10   E   0.10458  0.97707  0.25000
E11   E   0.18624  0.45917  0.32620
E12   E   0.18624  0.95917  0.67380
E13   E   0.20917  0.06376  0.92380
E14   E   0.20917  0.31376  0.12500
E15   E   0.20917  0.56376  0.07620
E16   E   0.20917  0.81376  0.87500
E17   E   0.22707  0.14542  0.50000
E18   E   0.22707  0.64542  0.50000
E19   E   0.25000  0.25000  0.75000
E20   E   0.25000  0.75000  0.25000
E21   E   0.27293  0.35458  0.00000
E22   E   0.27293  0.85458  0.00000
E23   E   0.29083  0.18624  0.37500
E24   E   0.29083  0.43624  0.57620
E25   E   0.29083  0.68624  0.62500
E26   E   0.29083  0.93624  0.42380
E27   E   0.31376  0.04083  0.17380
E28   E   0.31376  0.54083  0.82620
E29   E   0.39542  0.02293  0.75000
E30   E   0.39542  0.52293  0.25000
E31   E   0.43624  0.45917  0.37500
E32   E   0.43624  0.95917  0.62500
E33   E   0.50000  0.00000  0.00000
E34   E   0.50000  0.25000  0.04880
E35   E   0.50000  0.25000  0.70120
E36   E   0.50000  0.50000  0.00000
E37   E   0.50000  0.75000  0.29880
E38   E   0.50000  0.75000  0.95120
E39   E   0.56376  0.04083  0.37500
E40   E   0.56376  0.54083  0.62500
E41   E   0.60458  0.47707  0.75000
E42   E   0.60458  0.97707  0.25000
E43   E   0.68624  0.45917  0.17380
E44   E   0.68624  0.95917  0.82620
E45   E   0.70917  0.06376  0.57620
E46   E   0.70917  0.31376  0.37500
E47   E   0.70917  0.56376  0.42380
E48   E   0.70917  0.81376  0.62500
E49   E   0.72707  0.14542  0.00000
E50   E   0.72707  0.64542  0.00000
E51   E   0.75000  0.25000  0.75000
E52   E   0.75000  0.75000  0.25000
E53   E   0.77293  0.35458  0.50000
E54   E   0.77293  0.85458  0.50000
E55   E   0.79083  0.18624  0.12500
E56   E   0.79083  0.43624  0.92380
E57   E   0.79083  0.68624  0.87500
E58   E   0.79083  0.93624  0.07620
E59   E   0.81376  0.04083  0.32620
E60   E   0.81376  0.54083  0.67380
E61   E   0.89542  0.02293  0.75000
E62   E   0.89542  0.52293  0.25000
E63   E   0.93624  0.45917  0.12500
E64   E   0.93624  0.95917  0.87500
loop_
