data_wfr_I4/m  hall_number: 363, V_con: 7
_audit_creation_date              2025-03-05
_audit_creation_method            'MOFbuilder_1.0'
_symmetry_space_group_name_H-M    'P1'
_symmetry_Int_Tables_number       1
_symmetry_cell_setting            triclinic
loop_
_symmetry_equiv_pos_as_xyz
  x,y,z
_cell_length_a                    22.360699999999998
_cell_length_b                    22.360699999999998
_cell_length_c                    34.1421
_cell_angle_alpha                 90.0
_cell_angle_beta                  90.0
_cell_angle_gamma                 90.0
loop_
_atom_site_label
_atom_site_type_symbol
_atom_site_fract_x
_atom_site_fract_y
_atom_site_fract_z
V1    V   0.10000  0.70000  0.35355
V2    V   0.10000  0.70000  0.64645
V3    V   0.20000  0.40000  0.14645
V4    V   0.20000  0.40000  0.85355
V5    V   0.30000  0.10000  0.35355
V6    V   0.30000  0.10000  0.64645
V7    V   0.40000  0.80000  0.14645
V8    V   0.40000  0.80000  0.85355
V9    V   0.60000  0.20000  0.14645
V10   V   0.60000  0.20000  0.85355
V11   V   0.70000  0.90000  0.35355
V12   V   0.70000  0.90000  0.64645
V13   V   0.80000  0.60000  0.14645
V14   V   0.80000  0.60000  0.85355
V15   V   0.90000  0.30000  0.35355
V16   V   0.90000  0.30000  0.64645
E1    E   0.00000  0.50000  0.14645
E2    E   0.00000  0.50000  0.35355
E3    E   0.00000  0.50000  0.64645
E4    E   0.00000  0.50000  0.85355
E5    E   0.05000  0.35000  0.25000
E6    E   0.05000  0.35000  0.75000
E7    E   0.10000  0.20000  0.35355
E8    E   0.10000  0.20000  0.64645
E9    E   0.10000  0.70000  0.50000
E10   E   0.15000  0.55000  0.25000
E11   E   0.15000  0.55000  0.75000
E12   E   0.20000  0.40000  0.00000
E13   E   0.20000  0.90000  0.35355
E14   E   0.20000  0.90000  0.64645
E15   E   0.25000  0.25000  0.25000
E16   E   0.25000  0.25000  0.75000
E17   E   0.25000  0.75000  0.25000
E18   E   0.25000  0.75000  0.75000
E19   E   0.30000  0.10000  0.50000
E20   E   0.30000  0.60000  0.14645
E21   E   0.30000  0.60000  0.85355
E22   E   0.35000  0.95000  0.25000
E23   E   0.35000  0.95000  0.75000
E24   E   0.40000  0.30000  0.14645
E25   E   0.40000  0.30000  0.85355
E26   E   0.40000  0.80000  0.00000
E27   E   0.45000  0.15000  0.25000
E28   E   0.45000  0.15000  0.75000
E29   E   0.50000  0.00000  0.14645
E30   E   0.50000  0.00000  0.35355
E31   E   0.50000  0.00000  0.64645
E32   E   0.50000  0.00000  0.85355
E33   E   0.55000  0.85000  0.25000
E34   E   0.55000  0.85000  0.75000
E35   E   0.60000  0.20000  0.00000
E36   E   0.60000  0.70000  0.14645
E37   E   0.60000  0.70000  0.85355
E38   E   0.65000  0.05000  0.25000
E39   E   0.65000  0.05000  0.75000
E40   E   0.70000  0.40000  0.14645
E41   E   0.70000  0.40000  0.85355
E42   E   0.70000  0.90000  0.50000
E43   E   0.75000  0.25000  0.25000
E44   E   0.75000  0.25000  0.75000
E45   E   0.75000  0.75000  0.25000
E46   E   0.75000  0.75000  0.75000
E47   E   0.80000  0.10000  0.35355
E48   E   0.80000  0.10000  0.64645
E49   E   0.80000  0.60000  0.00000
E50   E   0.85000  0.45000  0.25000
E51   E   0.85000  0.45000  0.75000
E52   E   0.90000  0.30000  0.50000
E53   E   0.90000  0.80000  0.35355
E54   E   0.90000  0.80000  0.64645
E55   E   0.95000  0.65000  0.25000
E56   E   0.95000  0.65000  0.75000
loop_
