data_wft_P-421c  hall_number: 391, V_con: 7
_audit_creation_date              2025-03-05
_audit_creation_method            'MOFbuilder_1.0'
_symmetry_space_group_name_H-M    'P1'
_symmetry_Int_Tables_number       1
_symmetry_cell_setting            triclinic
loop_
_symmetry_equiv_pos_as_xyz
  x,y,z
_cell_length_a                    19.2224
_cell_length_b                    19.2224
_cell_length_c                    18.5101
_cell_angle_alpha                 90.0
_cell_angle_beta                  90.0
_cell_angle_gamma                 90.0
loop_
_atom_site_label
_atom_site_type_symbol
_atom_site_fract_x
_atom_site_fract_y
_atom_site_fract_z
V1    V   0.10057  0.73989  0.17615
V2    V   0.23989  0.60057  0.67615
V3    V   0.26011  0.10057  0.82385
V4    V   0.39943  0.23989  0.32385
V5    V   0.60057  0.76011  0.32385
V6    V   0.73989  0.89943  0.82385
V7    V   0.76011  0.39943  0.67615
V8    V   0.89943  0.26011  0.17615
E1    E   0.00000  0.50000  0.17615
E2    E   0.00000  0.50000  0.67615
E3    E   0.07977  0.18034  0.00000
E4    E   0.14943  0.25000  0.25000
E5    E   0.17023  0.67023  0.42615
E6    E   0.17023  0.67023  0.92615
E7    E   0.18034  0.92023  0.00000
E8    E   0.25000  0.35057  0.75000
E9    E   0.25000  0.85057  0.75000
E10   E   0.31966  0.42023  0.50000
E11   E   0.32977  0.17023  0.07385
E12   E   0.32977  0.17023  0.57385
E13   E   0.35057  0.75000  0.25000
E14   E   0.42023  0.68034  0.50000
E15   E   0.50000  0.00000  0.32385
E16   E   0.50000  0.00000  0.82385
E17   E   0.57977  0.31966  0.50000
E18   E   0.64943  0.25000  0.25000
E19   E   0.67023  0.82977  0.07385
E20   E   0.67023  0.82977  0.57385
E21   E   0.68034  0.57977  0.50000
E22   E   0.75000  0.14943  0.75000
E23   E   0.75000  0.64943  0.75000
E24   E   0.81966  0.07977  0.00000
E25   E   0.82977  0.32977  0.42615
E26   E   0.82977  0.32977  0.92615
E27   E   0.85057  0.75000  0.25000
E28   E   0.92023  0.81966  0.00000
loop_
