data_wfy_I-4  hall_number: 356, V_con: 7
_audit_creation_date              2025-03-05
_audit_creation_method            'MOFbuilder_1.0'
_symmetry_space_group_name_H-M    'P1'
_symmetry_Int_Tables_number       1
_symmetry_cell_setting            triclinic
loop_
_symmetry_equiv_pos_as_xyz
  x,y,z
_cell_length_a                    21.2322
_cell_length_b                    21.2322
_cell_length_c                    16.6021
_cell_angle_alpha                 90.0
_cell_angle_beta                  90.0
_cell_angle_gamma                 90.0
loop_
_atom_site_label
_atom_site_type_symbol
_atom_site_fract_x
_atom_site_fract_y
_atom_site_fract_z
V1    V   0.13020  0.69622  0.96296
V2    V   0.19622  0.36980  0.53704
V3    V   0.30378  0.13020  0.03704
V4    V   0.36980  0.80378  0.46296
V5    V   0.63020  0.19622  0.46296
V6    V   0.69622  0.86980  0.03704
V7    V   0.80378  0.63020  0.53704
V8    V   0.86980  0.30378  0.96296
E1    E   0.00000  0.50000  0.53704
E2    E   0.00000  0.50000  0.96296
E3    E   0.03301  0.33679  0.75000
E4    E   0.08679  0.21699  0.00000
E5    E   0.16321  0.53301  0.75000
E6    E   0.21699  0.91321  0.00000
E7    E   0.25000  0.25000  0.28704
E8    E   0.25000  0.25000  0.78704
E9    E   0.25000  0.75000  0.21296
E10   E   0.25000  0.75000  0.71296
E11   E   0.28301  0.58679  0.50000
E12   E   0.33679  0.96699  0.25000
E13   E   0.41321  0.28301  0.50000
E14   E   0.46699  0.16321  0.25000
E15   E   0.50000  0.00000  0.03704
E16   E   0.50000  0.00000  0.46296
E17   E   0.53301  0.83679  0.25000
E18   E   0.58679  0.71699  0.50000
E19   E   0.66321  0.03301  0.25000
E20   E   0.71699  0.41321  0.50000
E21   E   0.75000  0.25000  0.21296
E22   E   0.75000  0.25000  0.71296
E23   E   0.75000  0.75000  0.28704
E24   E   0.75000  0.75000  0.78704
E25   E   0.78301  0.08679  0.00000
E26   E   0.83679  0.46699  0.75000
E27   E   0.91321  0.78301  0.00000
E28   E   0.96699  0.66321  0.75000
loop_
