data_wgb_I-42d  hall_number: 399, V_con: 5
_audit_creation_date              2025-03-05
_audit_creation_method            'MOFbuilder_1.0'
_symmetry_space_group_name_H-M    'P1'
_symmetry_Int_Tables_number       1
_symmetry_cell_setting            triclinic
loop_
_symmetry_equiv_pos_as_xyz
  x,y,z
_cell_length_a                    33.8084
_cell_length_b                    33.8084
_cell_length_c                    16.0765
_cell_angle_alpha                 90.0
_cell_angle_beta                  90.0
_cell_angle_gamma                 90.0
loop_
_atom_site_label
_atom_site_type_symbol
_atom_site_fract_x
_atom_site_fract_y
_atom_site_fract_z
V1    V   0.10211  0.66202  0.87500
V2    V   0.10211  0.83798  0.37500
V3    V   0.16202  0.10211  0.62500
V4    V   0.16202  0.39789  0.62500
V5    V   0.33798  0.10211  0.12500
V6    V   0.33798  0.39789  0.12500
V7    V   0.39789  0.66202  0.87500
V8    V   0.39789  0.83798  0.37500
V9    V   0.60211  0.16202  0.37500
V10   V   0.60211  0.33798  0.87500
V11   V   0.66202  0.60211  0.12500
V12   V   0.66202  0.89789  0.12500
V13   V   0.83798  0.60211  0.62500
V14   V   0.83798  0.89789  0.62500
V15   V   0.89789  0.16202  0.37500
V16   V   0.89789  0.33798  0.87500
E1    E   0.02996  0.13207  0.50000
E2    E   0.02996  0.36793  0.75000
E3    E   0.10211  0.75000  0.12500
E4    E   0.10211  0.75000  0.62500
E5    E   0.13207  0.52996  0.75000
E6    E   0.13207  0.97004  0.50000
E7    E   0.16202  0.25000  0.62500
E8    E   0.25000  0.10211  0.37500
E9    E   0.25000  0.10211  0.87500
E10   E   0.25000  0.39789  0.37500
E11   E   0.25000  0.39789  0.87500
E12   E   0.25000  0.66202  0.87500
E13   E   0.25000  0.83798  0.37500
E14   E   0.33798  0.25000  0.12500
E15   E   0.36793  0.52996  0.00000
E16   E   0.36793  0.97004  0.25000
E17   E   0.39789  0.75000  0.12500
E18   E   0.39789  0.75000  0.62500
E19   E   0.47004  0.13207  0.25000
E20   E   0.47004  0.36793  0.00000
E21   E   0.52996  0.63207  0.00000
E22   E   0.52996  0.86793  0.25000
E23   E   0.60211  0.25000  0.12500
E24   E   0.60211  0.25000  0.62500
E25   E   0.63207  0.02996  0.25000
E26   E   0.63207  0.47004  0.00000
E27   E   0.66202  0.75000  0.12500
E28   E   0.75000  0.16202  0.37500
E29   E   0.75000  0.33798  0.87500
E30   E   0.75000  0.60211  0.37500
E31   E   0.75000  0.60211  0.87500
E32   E   0.75000  0.89789  0.37500
E33   E   0.75000  0.89789  0.87500
E34   E   0.83798  0.75000  0.62500
E35   E   0.86793  0.02996  0.50000
E36   E   0.86793  0.47004  0.75000
E37   E   0.89789  0.25000  0.12500
E38   E   0.89789  0.25000  0.62500
E39   E   0.97004  0.63207  0.75000
E40   E   0.97004  0.86793  0.50000
loop_
