data_wgc_I-42d  hall_number: 399, V_con: 5
_audit_creation_date              2025-03-05
_audit_creation_method            'MOFbuilder_1.0'
_symmetry_space_group_name_H-M    'P1'
_symmetry_Int_Tables_number       1
_symmetry_cell_setting            triclinic
loop_
_symmetry_equiv_pos_as_xyz
  x,y,z
_cell_length_a                    22.210700000000003
_cell_length_b                    22.210700000000003
_cell_length_c                    34.600300000000004
_cell_angle_alpha                 90.0
_cell_angle_beta                  90.0
_cell_angle_gamma                 90.0
loop_
_atom_site_label
_atom_site_type_symbol
_atom_site_fract_x
_atom_site_fract_y
_atom_site_fract_z
V1    V   0.10224  0.70056  0.98402
V2    V   0.10224  0.79944  0.26598
V3    V   0.20056  0.10224  0.73402
V4    V   0.20056  0.39776  0.51598
V5    V   0.29944  0.10224  0.01598
V6    V   0.29944  0.39776  0.23402
V7    V   0.39776  0.70056  0.76598
V8    V   0.39776  0.79944  0.48402
V9    V   0.60224  0.20056  0.48402
V10   V   0.60224  0.29944  0.76598
V11   V   0.70056  0.60224  0.23402
V12   V   0.70056  0.89776  0.01598
V13   V   0.79944  0.60224  0.51598
V14   V   0.79944  0.89776  0.73402
V15   V   0.89776  0.20056  0.26598
V16   V   0.89776  0.29944  0.98402
E1    E   0.00000  0.00000  0.26598
E2    E   0.00000  0.00000  0.73402
E3    E   0.00000  0.50000  0.51598
E4    E   0.00000  0.50000  0.98402
E5    E   0.09860  0.20084  0.00000
E6    E   0.09860  0.29916  0.25000
E7    E   0.10224  0.75000  0.12500
E8    E   0.20056  0.25000  0.62500
E9    E   0.20084  0.59860  0.25000
E10   E   0.20084  0.90140  0.00000
E11   E   0.25000  0.10224  0.87500
E12   E   0.25000  0.39776  0.37500
E13   E   0.25000  0.70056  0.87500
E14   E   0.25000  0.79944  0.37500
E15   E   0.29916  0.59860  0.50000
E16   E   0.29916  0.90140  0.75000
E17   E   0.29944  0.25000  0.12500
E18   E   0.39776  0.75000  0.62500
E19   E   0.40140  0.20084  0.75000
E20   E   0.40140  0.29916  0.50000
E21   E   0.50000  0.00000  0.01598
E22   E   0.50000  0.00000  0.48402
E23   E   0.50000  0.50000  0.23402
E24   E   0.50000  0.50000  0.76598
E25   E   0.59860  0.70084  0.50000
E26   E   0.59860  0.79916  0.75000
E27   E   0.60224  0.25000  0.62500
E28   E   0.70056  0.75000  0.12500
E29   E   0.70084  0.09860  0.75000
E30   E   0.70084  0.40140  0.50000
E31   E   0.75000  0.20056  0.37500
E32   E   0.75000  0.29944  0.87500
E33   E   0.75000  0.60224  0.37500
E34   E   0.75000  0.89776  0.87500
E35   E   0.79916  0.09860  0.00000
E36   E   0.79916  0.40140  0.25000
E37   E   0.79944  0.75000  0.62500
E38   E   0.89776  0.25000  0.12500
E39   E   0.90140  0.70084  0.25000
E40   E   0.90140  0.79916  0.00000
loop_
