data_wgj_I41/acd:2  hall_number: 429, V_con: 5
_audit_creation_date              2025-03-05
_audit_creation_method            'MOFbuilder_1.0'
_symmetry_space_group_name_H-M    'P1'
_symmetry_Int_Tables_number       1
_symmetry_cell_setting            triclinic
loop_
_symmetry_equiv_pos_as_xyz
  x,y,z
_cell_length_a                    41.736399999999996
_cell_length_b                    41.736399999999996
_cell_length_c                    19.3491
_cell_angle_alpha                 90.0
_cell_angle_beta                  90.0
_cell_angle_gamma                 90.0
loop_
_atom_site_label
_atom_site_type_symbol
_atom_site_fract_x
_atom_site_fract_y
_atom_site_fract_z
V1    V   0.06169  0.09392  0.91041
V2    V   0.06169  0.40608  0.41041
V3    V   0.06169  0.59392  0.08959
V4    V   0.06169  0.90608  0.58959
V5    V   0.15608  0.18831  0.33959
V6    V   0.15608  0.31169  0.83959
V7    V   0.15608  0.68831  0.66041
V8    V   0.15608  0.81169  0.16041
V9    V   0.34392  0.18831  0.66041
V10   V   0.34392  0.31169  0.16041
V11   V   0.34392  0.68831  0.33959
V12   V   0.34392  0.81169  0.83959
V13   V   0.43831  0.09392  0.08959
V14   V   0.43831  0.40608  0.58959
V15   V   0.43831  0.59392  0.91041
V16   V   0.43831  0.90608  0.41041
V17   V   0.56169  0.09392  0.58959
V18   V   0.56169  0.40608  0.08959
V19   V   0.56169  0.59392  0.41041
V20   V   0.56169  0.90608  0.91041
V21   V   0.65608  0.18831  0.16041
V22   V   0.65608  0.31169  0.66041
V23   V   0.65608  0.68831  0.83959
V24   V   0.65608  0.81169  0.33959
V25   V   0.84392  0.18831  0.83959
V26   V   0.84392  0.31169  0.33959
V27   V   0.84392  0.68831  0.16041
V28   V   0.84392  0.81169  0.66041
V29   V   0.93831  0.09392  0.41041
V30   V   0.93831  0.40608  0.91041
V31   V   0.93831  0.59392  0.58959
V32   V   0.93831  0.90608  0.08959
E1    E   0.00000  0.00000  0.00000
E2    E   0.00000  0.00000  0.50000
E3    E   0.00000  0.50000  0.00000
E4    E   0.00000  0.50000  0.50000
E5    E   0.04720  0.14112  0.37500
E6    E   0.04720  0.35888  0.87500
E7    E   0.04720  0.64112  0.62500
E8    E   0.04720  0.85888  0.12500
E9    E   0.06169  0.00000  0.75000
E10   E   0.06169  0.50000  0.25000
E11   E   0.10888  0.14112  0.12500
E12   E   0.10888  0.20280  0.87500
E13   E   0.10888  0.29720  0.37500
E14   E   0.10888  0.35888  0.62500
E15   E   0.10888  0.64112  0.87500
E16   E   0.10888  0.70280  0.12500
E17   E   0.10888  0.79720  0.62500
E18   E   0.10888  0.85888  0.37500
E19   E   0.25000  0.18831  0.50000
E20   E   0.25000  0.25000  0.25000
E21   E   0.25000  0.25000  0.75000
E22   E   0.25000  0.31169  0.00000
E23   E   0.25000  0.68831  0.50000
E24   E   0.25000  0.75000  0.25000
E25   E   0.25000  0.75000  0.75000
E26   E   0.25000  0.81169  0.00000
E27   E   0.39112  0.14112  0.87500
E28   E   0.39112  0.20280  0.12500
E29   E   0.39112  0.29720  0.62500
E30   E   0.39112  0.35888  0.37500
E31   E   0.39112  0.64112  0.12500
E32   E   0.39112  0.70280  0.87500
E33   E   0.39112  0.79720  0.37500
E34   E   0.39112  0.85888  0.62500
E35   E   0.43831  0.00000  0.25000
E36   E   0.43831  0.50000  0.75000
E37   E   0.45280  0.14112  0.62500
E38   E   0.45280  0.35888  0.12500
E39   E   0.45280  0.64112  0.37500
E40   E   0.45280  0.85888  0.87500
E41   E   0.50000  0.00000  0.00000
E42   E   0.50000  0.00000  0.50000
E43   E   0.50000  0.50000  0.00000
E44   E   0.50000  0.50000  0.50000
E45   E   0.54720  0.14112  0.12500
E46   E   0.54720  0.35888  0.62500
E47   E   0.54720  0.64112  0.87500
E48   E   0.54720  0.85888  0.37500
E49   E   0.56169  0.00000  0.75000
E50   E   0.56169  0.50000  0.25000
E51   E   0.60888  0.14112  0.37500
E52   E   0.60888  0.20280  0.62500
E53   E   0.60888  0.29720  0.12500
E54   E   0.60888  0.35888  0.87500
E55   E   0.60888  0.64112  0.62500
E56   E   0.60888  0.70280  0.37500
E57   E   0.60888  0.79720  0.87500
E58   E   0.60888  0.85888  0.12500
E59   E   0.75000  0.18831  0.00000
E60   E   0.75000  0.25000  0.25000
E61   E   0.75000  0.25000  0.75000
E62   E   0.75000  0.31169  0.50000
E63   E   0.75000  0.68831  0.00000
E64   E   0.75000  0.75000  0.25000
E65   E   0.75000  0.75000  0.75000
E66   E   0.75000  0.81169  0.50000
E67   E   0.89112  0.14112  0.62500
E68   E   0.89112  0.20280  0.37500
E69   E   0.89112  0.29720  0.87500
E70   E   0.89112  0.35888  0.12500
E71   E   0.89112  0.64112  0.37500
E72   E   0.89112  0.70280  0.62500
E73   E   0.89112  0.79720  0.12500
E74   E   0.89112  0.85888  0.87500
E75   E   0.93831  0.00000  0.25000
E76   E   0.93831  0.50000  0.75000
E77   E   0.95280  0.14112  0.87500
E78   E   0.95280  0.35888  0.37500
E79   E   0.95280  0.64112  0.12500
E80   E   0.95280  0.85888  0.62500
loop_
