data_wgq_I41/acd:2  hall_number: 429, V_con: 5
_audit_creation_date              2025-03-05
_audit_creation_method            'MOFbuilder_1.0'
_symmetry_space_group_name_H-M    'P1'
_symmetry_Int_Tables_number       1
_symmetry_cell_setting            triclinic
loop_
_symmetry_equiv_pos_as_xyz
  x,y,z
_cell_length_a                    19.8586
_cell_length_b                    19.8586
_cell_length_c                    78.1767
_cell_angle_alpha                 90.0
_cell_angle_beta                  90.0
_cell_angle_gamma                 90.0
loop_
_atom_site_label
_atom_site_type_symbol
_atom_site_fract_x
_atom_site_fract_y
_atom_site_fract_z
V1    V   0.12224  0.02989  0.18649
V2    V   0.12224  0.47011  0.68649
V3    V   0.12224  0.52989  0.81351
V4    V   0.12224  0.97011  0.31351
V5    V   0.22011  0.12776  0.06351
V6    V   0.22011  0.37224  0.56351
V7    V   0.22011  0.62776  0.93649
V8    V   0.22011  0.87224  0.43649
V9    V   0.27989  0.12776  0.93649
V10   V   0.27989  0.37224  0.43649
V11   V   0.27989  0.62776  0.06351
V12   V   0.27989  0.87224  0.56351
V13   V   0.37776  0.02989  0.81351
V14   V   0.37776  0.47011  0.31351
V15   V   0.37776  0.52989  0.18649
V16   V   0.37776  0.97011  0.68649
V17   V   0.62224  0.02989  0.31351
V18   V   0.62224  0.47011  0.81351
V19   V   0.62224  0.52989  0.68649
V20   V   0.62224  0.97011  0.18649
V21   V   0.72011  0.12776  0.43649
V22   V   0.72011  0.37224  0.93649
V23   V   0.72011  0.62776  0.56351
V24   V   0.72011  0.87224  0.06351
V25   V   0.77989  0.12776  0.56351
V26   V   0.77989  0.37224  0.06351
V27   V   0.77989  0.62776  0.43649
V28   V   0.77989  0.87224  0.93649
V29   V   0.87776  0.02989  0.68649
V30   V   0.87776  0.47011  0.18649
V31   V   0.87776  0.52989  0.31351
V32   V   0.87776  0.97011  0.81351
E1    E   0.00000  0.25000  0.06351
E2    E   0.00000  0.25000  0.18649
E3    E   0.00000  0.25000  0.56351
E4    E   0.00000  0.25000  0.68649
E5    E   0.00000  0.75000  0.31351
E6    E   0.00000  0.75000  0.43649
E7    E   0.00000  0.75000  0.81351
E8    E   0.00000  0.75000  0.93649
E9    E   0.12224  0.00000  0.25000
E10   E   0.12224  0.50000  0.75000
E11   E   0.12776  0.00000  0.68649
E12   E   0.12776  0.00000  0.81351
E13   E   0.12776  0.50000  0.18649
E14   E   0.12776  0.50000  0.31351
E15   E   0.17118  0.07882  0.12500
E16   E   0.17118  0.42118  0.62500
E17   E   0.17118  0.57882  0.87500
E18   E   0.17118  0.92118  0.37500
E19   E   0.25000  0.12224  0.43649
E20   E   0.25000  0.12224  0.56351
E21   E   0.25000  0.12776  0.00000
E22   E   0.25000  0.37224  0.50000
E23   E   0.25000  0.37776  0.06351
E24   E   0.25000  0.37776  0.93649
E25   E   0.25000  0.62224  0.43649
E26   E   0.25000  0.62224  0.56351
E27   E   0.25000  0.62776  0.00000
E28   E   0.25000  0.87224  0.50000
E29   E   0.25000  0.87776  0.06351
E30   E   0.25000  0.87776  0.93649
E31   E   0.32882  0.07882  0.87500
E32   E   0.32882  0.42118  0.37500
E33   E   0.32882  0.57882  0.12500
E34   E   0.32882  0.92118  0.62500
E35   E   0.37224  0.00000  0.18649
E36   E   0.37224  0.00000  0.31351
E37   E   0.37224  0.50000  0.68649
E38   E   0.37224  0.50000  0.81351
E39   E   0.37776  0.00000  0.75000
E40   E   0.37776  0.50000  0.25000
E41   E   0.50000  0.25000  0.31351
E42   E   0.50000  0.25000  0.43649
E43   E   0.50000  0.25000  0.81351
E44   E   0.50000  0.25000  0.93649
E45   E   0.50000  0.75000  0.06351
E46   E   0.50000  0.75000  0.18649
E47   E   0.50000  0.75000  0.56351
E48   E   0.50000  0.75000  0.68649
E49   E   0.62224  0.00000  0.25000
E50   E   0.62224  0.50000  0.75000
E51   E   0.62776  0.00000  0.68649
E52   E   0.62776  0.00000  0.81351
E53   E   0.62776  0.50000  0.18649
E54   E   0.62776  0.50000  0.31351
E55   E   0.67118  0.07882  0.37500
E56   E   0.67118  0.42118  0.87500
E57   E   0.67118  0.57882  0.62500
E58   E   0.67118  0.92118  0.12500
E59   E   0.75000  0.12224  0.06351
E60   E   0.75000  0.12224  0.93649
E61   E   0.75000  0.12776  0.50000
E62   E   0.75000  0.37224  0.00000
E63   E   0.75000  0.37776  0.43649
E64   E   0.75000  0.37776  0.56351
E65   E   0.75000  0.62224  0.06351
E66   E   0.75000  0.62224  0.93649
E67   E   0.75000  0.62776  0.50000
E68   E   0.75000  0.87224  0.00000
E69   E   0.75000  0.87776  0.43649
E70   E   0.75000  0.87776  0.56351
E71   E   0.82882  0.07882  0.62500
E72   E   0.82882  0.42118  0.12500
E73   E   0.82882  0.57882  0.37500
E74   E   0.82882  0.92118  0.87500
E75   E   0.87224  0.00000  0.18649
E76   E   0.87224  0.00000  0.31351
E77   E   0.87224  0.50000  0.68649
E78   E   0.87224  0.50000  0.81351
E79   E   0.87776  0.00000  0.75000
E80   E   0.87776  0.50000  0.25000
loop_
