data_wgv_P42/mnm  hall_number: 419, V_con: 6
_audit_creation_date              2025-03-05
_audit_creation_method            'MOFbuilder_1.0'
_symmetry_space_group_name_H-M    'P1'
_symmetry_Int_Tables_number       1
_symmetry_cell_setting            triclinic
loop_
_symmetry_equiv_pos_as_xyz
  x,y,z
_cell_length_a                    18.1472
_cell_length_b                    18.1472
_cell_length_c                    27.3919
_cell_angle_alpha                 90.0
_cell_angle_beta                  90.0
_cell_angle_gamma                 90.0
loop_
_atom_site_label
_atom_site_type_symbol
_atom_site_fract_x
_atom_site_fract_y
_atom_site_fract_z
V1    V   0.19482  0.19482  0.18254
V2    V   0.19482  0.19482  0.81746
V3    V   0.30518  0.69482  0.31746
V4    V   0.30518  0.69482  0.68254
V5    V   0.69482  0.30518  0.31746
V6    V   0.69482  0.30518  0.68254
V7    V   0.80518  0.80518  0.18254
V8    V   0.80518  0.80518  0.81746
E1    E   0.00000  0.00000  0.18254
E2    E   0.00000  0.00000  0.81746
E3    E   0.05518  0.75000  0.25000
E4    E   0.05518  0.75000  0.75000
E5    E   0.19482  0.19482  0.00000
E6    E   0.25000  0.44482  0.25000
E7    E   0.25000  0.44482  0.75000
E8    E   0.25000  0.94482  0.25000
E9    E   0.25000  0.94482  0.75000
E10   E   0.30518  0.69482  0.50000
E11   E   0.44482  0.25000  0.25000
E12   E   0.44482  0.25000  0.75000
E13   E   0.50000  0.50000  0.31746
E14   E   0.50000  0.50000  0.68254
E15   E   0.55518  0.75000  0.25000
E16   E   0.55518  0.75000  0.75000
E17   E   0.69482  0.30518  0.50000
E18   E   0.75000  0.05518  0.25000
E19   E   0.75000  0.05518  0.75000
E20   E   0.75000  0.55518  0.25000
E21   E   0.75000  0.55518  0.75000
E22   E   0.80518  0.80518  0.00000
E23   E   0.94482  0.25000  0.25000
E24   E   0.94482  0.25000  0.75000
loop_
