data_wgw_P42/ncm:2  hall_number: 423, V_con: 6
_audit_creation_date              2025-03-05
_audit_creation_method            'MOFbuilder_1.0'
_symmetry_space_group_name_H-M    'P1'
_symmetry_Int_Tables_number       1
_symmetry_cell_setting            triclinic
loop_
_symmetry_equiv_pos_as_xyz
  x,y,z
_cell_length_a                    17.8884
_cell_length_b                    17.8884
_cell_length_c                    27.4078
_cell_angle_alpha                 90.0
_cell_angle_beta                  90.0
_cell_angle_gamma                 90.0
loop_
_atom_site_label
_atom_site_type_symbol
_atom_site_fract_x
_atom_site_fract_y
_atom_site_fract_z
V1    V   0.05236  0.05236  0.67591
V2    V   0.05236  0.44764  0.17591
V3    V   0.05236  0.05236  0.67591
V4    V   0.05236  0.44764  0.17591
V5    V   0.44764  0.05236  0.17591
V6    V   0.44764  0.05236  0.17591
V7    V   0.44764  0.44764  0.67591
V8    V   0.55236  0.55236  0.32409
V9    V   0.55236  0.94764  0.82409
V10   V   0.94764  0.55236  0.82409
V11   V   0.94764  0.94764  0.32409
E1    E   0.00000  0.00000  0.50000
E2    E   0.00000  0.19764  0.25000
E3    E   0.00000  0.30236  0.75000
E4    E   0.00000  0.50000  0.00000
E5    E   0.00000  0.69764  0.25000
E6    E   0.00000  0.80236  0.75000
E7    E   0.19764  0.00000  0.25000
E8    E   0.19764  0.50000  0.75000
E9    E   0.25000  0.25000  0.17591
E10   E   0.25000  0.25000  0.67591
E11   E   0.30236  0.00000  0.75000
E12   E   0.30236  0.50000  0.25000
E13   E   0.50000  0.00000  0.00000
E14   E   0.50000  0.19764  0.75000
E15   E   0.50000  0.30236  0.25000
E16   E   0.50000  0.50000  0.50000
E17   E   0.50000  0.69764  0.75000
E18   E   0.50000  0.80236  0.25000
E19   E   0.69764  0.00000  0.25000
E20   E   0.69764  0.50000  0.75000
E21   E   0.75000  0.75000  0.32409
E22   E   0.75000  0.75000  0.82409
E23   E   0.80236  0.00000  0.75000
E24   E   0.80236  0.50000  0.25000
loop_
