data_wgx_I4/m  hall_number: 363, V_con: 6
_audit_creation_date              2025-03-05
_audit_creation_method            'MOFbuilder_1.0'
_symmetry_space_group_name_H-M    'P1'
_symmetry_Int_Tables_number       1
_symmetry_cell_setting            triclinic
loop_
_symmetry_equiv_pos_as_xyz
  x,y,z
_cell_length_a                    25.4418
_cell_length_b                    25.4418
_cell_length_c                    29.377200000000002
_cell_angle_alpha                 90.0
_cell_angle_beta                  90.0
_cell_angle_gamma                 90.0
loop_
_atom_site_label
_atom_site_type_symbol
_atom_site_fract_x
_atom_site_fract_y
_atom_site_fract_z
V1    V   0.07725  0.73302  0.32980
V2    V   0.07725  0.73302  0.67020
V3    V   0.23302  0.42275  0.17020
V4    V   0.23302  0.42275  0.82980
V5    V   0.26698  0.07725  0.32980
V6    V   0.26698  0.07725  0.67020
V7    V   0.42275  0.76698  0.17020
V8    V   0.42275  0.76698  0.82980
V9    V   0.57725  0.23302  0.17020
V10   V   0.57725  0.23302  0.82980
V11   V   0.73302  0.92275  0.32980
V12   V   0.73302  0.92275  0.67020
V13   V   0.76698  0.57725  0.17020
V14   V   0.76698  0.57725  0.82980
V15   V   0.92275  0.26698  0.32980
V16   V   0.92275  0.26698  0.67020
E1    E   0.07725  0.73302  0.50000
E2    E   0.07789  0.34487  0.25000
E3    E   0.07789  0.34487  0.75000
E4    E   0.09487  0.17211  0.32980
E5    E   0.09487  0.17211  0.67020
E6    E   0.15513  0.57789  0.25000
E7    E   0.15513  0.57789  0.75000
E8    E   0.17211  0.90513  0.32980
E9    E   0.17211  0.90513  0.67020
E10   E   0.23302  0.42275  0.00000
E11   E   0.25000  0.25000  0.25000
E12   E   0.25000  0.25000  0.75000
E13   E   0.25000  0.75000  0.25000
E14   E   0.25000  0.75000  0.75000
E15   E   0.26698  0.07725  0.50000
E16   E   0.32789  0.59487  0.17020
E17   E   0.32789  0.59487  0.82980
E18   E   0.34487  0.92211  0.25000
E19   E   0.34487  0.92211  0.75000
E20   E   0.40513  0.32789  0.17020
E21   E   0.40513  0.32789  0.82980
E22   E   0.42211  0.15513  0.25000
E23   E   0.42211  0.15513  0.75000
E24   E   0.42275  0.76698  0.00000
E25   E   0.57725  0.23302  0.00000
E26   E   0.57789  0.84487  0.25000
E27   E   0.57789  0.84487  0.75000
E28   E   0.59487  0.67211  0.17020
E29   E   0.59487  0.67211  0.82980
E30   E   0.65513  0.07789  0.25000
E31   E   0.65513  0.07789  0.75000
E32   E   0.67211  0.40513  0.17020
E33   E   0.67211  0.40513  0.82980
E34   E   0.73302  0.92275  0.50000
E35   E   0.75000  0.25000  0.25000
E36   E   0.75000  0.25000  0.75000
E37   E   0.75000  0.75000  0.25000
E38   E   0.75000  0.75000  0.75000
E39   E   0.76698  0.57725  0.00000
E40   E   0.82789  0.09487  0.32980
E41   E   0.82789  0.09487  0.67020
E42   E   0.84487  0.42211  0.25000
E43   E   0.84487  0.42211  0.75000
E44   E   0.90513  0.82789  0.32980
E45   E   0.90513  0.82789  0.67020
E46   E   0.92211  0.65513  0.25000
E47   E   0.92211  0.65513  0.75000
E48   E   0.92275  0.26698  0.50000
loop_
