data_whc_P-4c2  hall_number: 393, V_con: 6
_audit_creation_date              2025-03-05
_audit_creation_method            'MOFbuilder_1.0'
_symmetry_space_group_name_H-M    'P1'
_symmetry_Int_Tables_number       1
_symmetry_cell_setting            triclinic
loop_
_symmetry_equiv_pos_as_xyz
  x,y,z
_cell_length_a                    22.8054
_cell_length_b                    22.8054
_cell_length_c                    19.7366
_cell_angle_alpha                 90.0
_cell_angle_beta                  90.0
_cell_angle_gamma                 90.0
loop_
_atom_site_label
_atom_site_type_symbol
_atom_site_fract_x
_atom_site_fract_y
_atom_site_fract_z
V1    V   0.21636  0.46453  0.40186
V2    V   0.21636  0.53547  0.90186
V3    V   0.46453  0.21636  0.09814
V4    V   0.46453  0.78364  0.59814
V5    V   0.53547  0.21636  0.59814
V6    V   0.53547  0.78364  0.09814
V7    V   0.78364  0.46453  0.90186
V8    V   0.78364  0.53547  0.40186
E1    E   0.00000  0.50000  0.40186
E2    E   0.00000  0.50000  0.90186
E3    E   0.21636  0.50000  0.15186
E4    E   0.21636  0.50000  0.65186
E5    E   0.34044  0.34044  0.25000
E6    E   0.34044  0.37591  0.00000
E7    E   0.34044  0.62409  0.50000
E8    E   0.34044  0.65956  0.75000
E9    E   0.37591  0.34044  0.50000
E10   E   0.37591  0.65956  0.00000
E11   E   0.50000  0.00000  0.09814
E12   E   0.50000  0.00000  0.59814
E13   E   0.50000  0.21636  0.34814
E14   E   0.50000  0.21636  0.84814
E15   E   0.50000  0.78364  0.34814
E16   E   0.50000  0.78364  0.84814
E17   E   0.62409  0.34044  0.00000
E18   E   0.62409  0.65956  0.50000
E19   E   0.65956  0.34044  0.75000
E20   E   0.65956  0.37591  0.50000
E21   E   0.65956  0.62409  0.00000
E22   E   0.65956  0.65956  0.25000
E23   E   0.78364  0.50000  0.15186
E24   E   0.78364  0.50000  0.65186
loop_
