data_whd_I-42m  hall_number: 398, V_con: 6
_audit_creation_date              2025-03-05
_audit_creation_method            'MOFbuilder_1.0'
_symmetry_space_group_name_H-M    'P1'
_symmetry_Int_Tables_number       1
_symmetry_cell_setting            triclinic
loop_
_symmetry_equiv_pos_as_xyz
  x,y,z
_cell_length_a                    32.700900000000004
_cell_length_b                    32.700900000000004
_cell_length_c                    19.5004
_cell_angle_alpha                 90.0
_cell_angle_beta                  90.0
_cell_angle_gamma                 90.0
loop_
_atom_site_label
_atom_site_type_symbol
_atom_site_fract_x
_atom_site_fract_y
_atom_site_fract_z
V1    V   0.11787  0.33410  0.83667
V2    V   0.11787  0.66590  0.16333
V3    V   0.16590  0.38213  0.33667
V4    V   0.16590  0.61787  0.66333
V5    V   0.33410  0.11787  0.83667
V6    V   0.33410  0.88213  0.16333
V7    V   0.38213  0.16590  0.33667
V8    V   0.38213  0.83410  0.66333
V9    V   0.61787  0.16590  0.66333
V10   V   0.61787  0.83410  0.33667
V11   V   0.66590  0.11787  0.16333
V12   V   0.66590  0.88213  0.83667
V13   V   0.83410  0.38213  0.66333
V14   V   0.83410  0.61787  0.33667
V15   V   0.88213  0.33410  0.16333
V16   V   0.88213  0.66590  0.83667
E1    E   0.00000  0.33410  0.00000
E2    E   0.00000  0.66590  0.00000
E3    E   0.02402  0.35812  0.25000
E4    E   0.02402  0.64188  0.75000
E5    E   0.14188  0.35812  0.08667
E6    E   0.14188  0.35812  0.58667
E7    E   0.14188  0.47598  0.75000
E8    E   0.14188  0.52402  0.25000
E9    E   0.14188  0.64188  0.41333
E10   E   0.14188  0.64188  0.91333
E11   E   0.16590  0.50000  0.50000
E12   E   0.22598  0.22598  0.83667
E13   E   0.22598  0.77402  0.16333
E14   E   0.27402  0.27402  0.33667
E15   E   0.27402  0.72598  0.66333
E16   E   0.33410  0.00000  0.00000
E17   E   0.35812  0.02402  0.25000
E18   E   0.35812  0.14188  0.08667
E19   E   0.35812  0.14188  0.58667
E20   E   0.35812  0.85812  0.41333
E21   E   0.35812  0.85812  0.91333
E22   E   0.35812  0.97598  0.75000
E23   E   0.47598  0.14188  0.75000
E24   E   0.47598  0.85812  0.25000
E25   E   0.50000  0.16590  0.50000
E26   E   0.50000  0.83410  0.50000
E27   E   0.52402  0.14188  0.25000
E28   E   0.52402  0.85812  0.75000
E29   E   0.64188  0.02402  0.75000
E30   E   0.64188  0.14188  0.41333
E31   E   0.64188  0.14188  0.91333
E32   E   0.64188  0.85812  0.08667
E33   E   0.64188  0.85812  0.58667
E34   E   0.64188  0.97598  0.25000
E35   E   0.66590  0.00000  0.00000
E36   E   0.72598  0.27402  0.66333
E37   E   0.72598  0.72598  0.33667
E38   E   0.77402  0.22598  0.16333
E39   E   0.77402  0.77402  0.83667
E40   E   0.83410  0.50000  0.50000
E41   E   0.85812  0.35812  0.41333
E42   E   0.85812  0.35812  0.91333
E43   E   0.85812  0.47598  0.25000
E44   E   0.85812  0.52402  0.75000
E45   E   0.85812  0.64188  0.08667
E46   E   0.85812  0.64188  0.58667
E47   E   0.97598  0.35812  0.75000
E48   E   0.97598  0.64188  0.25000
loop_
