data_whh_P4/nnc:2  hall_number: 405, V_con: 6
_audit_creation_date              2025-03-05
_audit_creation_method            'MOFbuilder_1.0'
_symmetry_space_group_name_H-M    'P1'
_symmetry_Int_Tables_number       1
_symmetry_cell_setting            triclinic
loop_
_symmetry_equiv_pos_as_xyz
  x,y,z
_cell_length_a                    21.474600000000002
_cell_length_b                    21.474600000000002
_cell_length_c                    33.0931
_cell_angle_alpha                 90.0
_cell_angle_beta                  90.0
_cell_angle_gamma                 90.0
loop_
_atom_site_label
_atom_site_type_symbol
_atom_site_fract_x
_atom_site_fract_y
_atom_site_fract_z
V1    V   0.05421  0.62399  0.12295
V2    V   0.05421  0.87601  0.37705
V3    V   0.12399  0.55421  0.62295
V4    V   0.12399  0.94579  0.87705
V5    V   0.37601  0.55421  0.87705
V6    V   0.37601  0.94579  0.62295
V7    V   0.44579  0.62399  0.37705
V8    V   0.44579  0.87601  0.12295
V9    V   0.55421  0.12399  0.87705
V10   V   0.55421  0.37601  0.62295
V11   V   0.62399  0.05421  0.37705
V12   V   0.62399  0.44579  0.12295
V13   V   0.87601  0.05421  0.12295
V14   V   0.87601  0.44579  0.37705
V15   V   0.94579  0.12399  0.62295
V16   V   0.94579  0.37601  0.87705
E1    E   0.00000  0.00000  0.00000
E2    E   0.00000  0.00000  0.50000
E3    E   0.00000  0.50000  0.00000
E4    E   0.00000  0.50000  0.50000
E5    E   0.03489  0.03489  0.75000
E6    E   0.03489  0.16090  0.87705
E7    E   0.03489  0.33910  0.62295
E8    E   0.03489  0.46511  0.75000
E9    E   0.03489  0.03489  0.75000
E10   E   0.03489  0.46511  0.75000
E11   E   0.05421  0.75000  0.25000
E12   E   0.16090  0.03489  0.62295
E13   E   0.16090  0.46511  0.87705
E14   E   0.25000  0.55421  0.75000
E15   E   0.25000  0.75000  0.12295
E16   E   0.25000  0.75000  0.37705
E17   E   0.25000  0.75000  0.62295
E18   E   0.25000  0.75000  0.87705
E19   E   0.25000  0.94579  0.75000
E20   E   0.33910  0.03489  0.87705
E21   E   0.33910  0.46511  0.62295
E22   E   0.44579  0.75000  0.25000
E23   E   0.46511  0.03489  0.75000
E24   E   0.46511  0.03489  0.75000
E25   E   0.46511  0.16090  0.62295
E26   E   0.46511  0.33910  0.87705
E27   E   0.46511  0.46511  0.75000
E28   E   0.50000  0.00000  0.00000
E29   E   0.50000  0.00000  0.50000
E30   E   0.50000  0.50000  0.00000
E31   E   0.50000  0.50000  0.50000
E32   E   0.53489  0.53489  0.25000
E33   E   0.53489  0.66090  0.12295
E34   E   0.53489  0.83910  0.37705
E35   E   0.53489  0.96511  0.25000
E36   E   0.55421  0.25000  0.75000
E37   E   0.66090  0.53489  0.37705
E38   E   0.66090  0.96511  0.12295
E39   E   0.75000  0.05421  0.25000
E40   E   0.75000  0.25000  0.12295
E41   E   0.75000  0.25000  0.37705
E42   E   0.75000  0.25000  0.62295
E43   E   0.75000  0.25000  0.87705
E44   E   0.75000  0.44579  0.25000
E45   E   0.83910  0.53489  0.12295
E46   E   0.83910  0.96511  0.37705
E47   E   0.94579  0.25000  0.75000
E48   E   0.96511  0.53489  0.25000
E49   E   0.96511  0.66090  0.37705
E50   E   0.96511  0.83910  0.12295
E51   E   0.96511  0.96511  0.25000
loop_
