data_whj_P4/ncc:2  hall_number: 411, V_con: 6
_audit_creation_date              2025-03-05
_audit_creation_method            'MOFbuilder_1.0'
_symmetry_space_group_name_H-M    'P1'
_symmetry_Int_Tables_number       1
_symmetry_cell_setting            triclinic
loop_
_symmetry_equiv_pos_as_xyz
  x,y,z
_cell_length_a                    24.1662
_cell_length_b                    24.1662
_cell_length_c                    29.557199999999998
_cell_angle_alpha                 90.0
_cell_angle_beta                  90.0
_cell_angle_gamma                 90.0
loop_
_atom_site_label
_atom_site_type_symbol
_atom_site_fract_x
_atom_site_fract_y
_atom_site_fract_z
V1    V   0.02980  0.66438  0.59980
V2    V   0.02980  0.83562  0.09980
V3    V   0.16438  0.52980  0.90020
V4    V   0.16438  0.97020  0.40020
V5    V   0.33562  0.52980  0.40020
V6    V   0.33562  0.97020  0.90020
V7    V   0.47020  0.66438  0.09980
V8    V   0.47020  0.83562  0.59980
V9    V   0.52980  0.16438  0.40020
V10   V   0.52980  0.33562  0.90020
V11   V   0.66438  0.02980  0.09980
V12   V   0.66438  0.47020  0.59980
V13   V   0.83562  0.02980  0.59980
V14   V   0.83562  0.47020  0.09980
V15   V   0.97020  0.16438  0.90020
V16   V   0.97020  0.33562  0.40020
E1    E   0.00000  0.00000  0.00000
E2    E   0.00000  0.00000  0.50000
E3    E   0.00000  0.50000  0.00000
E4    E   0.00000  0.50000  0.50000
E5    E   0.06729  0.15291  0.40020
E6    E   0.06729  0.34709  0.90020
E7    E   0.09709  0.59709  0.75000
E8    E   0.09709  0.90291  0.25000
E9    E   0.09709  0.59709  0.75000
E10   E   0.09709  0.68271  0.00000
E11   E   0.09709  0.81729  0.50000
E12   E   0.09709  0.90291  0.25000
E13   E   0.15291  0.06729  0.90020
E14   E   0.15291  0.43271  0.40020
E15   E   0.18271  0.59709  0.50000
E16   E   0.18271  0.90291  0.00000
E17   E   0.31729  0.59709  0.00000
E18   E   0.31729  0.90291  0.50000
E19   E   0.34709  0.06729  0.40020
E20   E   0.34709  0.43271  0.90020
E21   E   0.40291  0.59709  0.25000
E22   E   0.40291  0.68271  0.50000
E23   E   0.40291  0.81729  0.00000
E24   E   0.40291  0.90291  0.75000
E25   E   0.43271  0.15291  0.90020
E26   E   0.43271  0.34709  0.40020
E27   E   0.50000  0.00000  0.00000
E28   E   0.50000  0.00000  0.50000
E29   E   0.50000  0.50000  0.00000
E30   E   0.50000  0.50000  0.50000
E31   E   0.56729  0.65291  0.59980
E32   E   0.56729  0.84709  0.09980
E33   E   0.59709  0.09709  0.25000
E34   E   0.59709  0.09709  0.25000
E35   E   0.59709  0.18271  0.00000
E36   E   0.59709  0.31729  0.50000
E37   E   0.59709  0.40291  0.75000
E38   E   0.65291  0.56729  0.09980
E39   E   0.65291  0.93271  0.59980
E40   E   0.68271  0.09709  0.50000
E41   E   0.68271  0.40291  0.00000
E42   E   0.81729  0.09709  0.00000
E43   E   0.81729  0.40291  0.50000
E44   E   0.84709  0.56729  0.59980
E45   E   0.84709  0.93271  0.09980
E46   E   0.90291  0.09709  0.75000
E47   E   0.90291  0.09709  0.75000
E48   E   0.90291  0.18271  0.50000
E49   E   0.90291  0.31729  0.00000
E50   E   0.90291  0.40291  0.25000
E51   E   0.93271  0.65291  0.09980
E52   E   0.93271  0.84709  0.59980
loop_
