data_whq_I4/mcm  hall_number: 425, V_con: 6
_audit_creation_date              2025-03-05
_audit_creation_method            'MOFbuilder_1.0'
_symmetry_space_group_name_H-M    'P1'
_symmetry_Int_Tables_number       1
_symmetry_cell_setting            triclinic
loop_
_symmetry_equiv_pos_as_xyz
  x,y,z
_cell_length_a                    32.619699999999995
_cell_length_b                    32.619699999999995
_cell_length_c                    36.8179
_cell_angle_alpha                 90.0
_cell_angle_beta                  90.0
_cell_angle_gamma                 90.0
loop_
_atom_site_label
_atom_site_type_symbol
_atom_site_fract_x
_atom_site_fract_y
_atom_site_fract_z
V1    V   0.08295  0.20027  0.13580
V2    V   0.08295  0.20027  0.86420
V3    V   0.08295  0.79973  0.36420
V4    V   0.08295  0.79973  0.63580
V5    V   0.20027  0.08295  0.36420
V6    V   0.20027  0.08295  0.63580
V7    V   0.20027  0.91705  0.13580
V8    V   0.20027  0.91705  0.86420
V9    V   0.29973  0.41705  0.13580
V10   V   0.29973  0.41705  0.86420
V11   V   0.29973  0.58295  0.36420
V12   V   0.29973  0.58295  0.63580
V13   V   0.41705  0.29973  0.36420
V14   V   0.41705  0.29973  0.63580
V15   V   0.41705  0.70027  0.13580
V16   V   0.41705  0.70027  0.86420
V17   V   0.58295  0.29973  0.13580
V18   V   0.58295  0.29973  0.86420
V19   V   0.58295  0.70027  0.36420
V20   V   0.58295  0.70027  0.63580
V21   V   0.70027  0.41705  0.36420
V22   V   0.70027  0.41705  0.63580
V23   V   0.70027  0.58295  0.13580
V24   V   0.70027  0.58295  0.86420
V25   V   0.79973  0.08295  0.13580
V26   V   0.79973  0.08295  0.86420
V27   V   0.79973  0.91705  0.36420
V28   V   0.79973  0.91705  0.63580
V29   V   0.91705  0.20027  0.36420
V30   V   0.91705  0.20027  0.63580
V31   V   0.91705  0.79973  0.13580
V32   V   0.91705  0.79973  0.86420
E1    E   0.00000  0.20027  0.25000
E2    E   0.00000  0.20027  0.75000
E3    E   0.00000  0.79973  0.25000
E4    E   0.00000  0.79973  0.75000
E5    E   0.05866  0.14161  0.36420
E6    E   0.05866  0.14161  0.63580
E7    E   0.05866  0.85839  0.13580
E8    E   0.05866  0.85839  0.86420
E9    E   0.08295  0.20027  0.00000
E10   E   0.08295  0.79973  0.50000
E11   E   0.14161  0.05866  0.13580
E12   E   0.14161  0.05866  0.86420
E13   E   0.14161  0.14161  0.25000
E14   E   0.14161  0.14161  0.75000
E15   E   0.14161  0.85839  0.25000
E16   E   0.14161  0.85839  0.75000
E17   E   0.14161  0.94134  0.36420
E18   E   0.14161  0.94134  0.63580
E19   E   0.19134  0.30866  0.13580
E20   E   0.19134  0.30866  0.86420
E21   E   0.19134  0.69134  0.36420
E22   E   0.19134  0.69134  0.63580
E23   E   0.20027  0.00000  0.25000
E24   E   0.20027  0.00000  0.75000
E25   E   0.20027  0.08295  0.50000
E26   E   0.20027  0.91705  0.00000
E27   E   0.29973  0.41705  0.00000
E28   E   0.29973  0.50000  0.25000
E29   E   0.29973  0.50000  0.75000
E30   E   0.29973  0.58295  0.50000
E31   E   0.30866  0.19134  0.36420
E32   E   0.30866  0.19134  0.63580
E33   E   0.30866  0.80866  0.13580
E34   E   0.30866  0.80866  0.86420
E35   E   0.35839  0.35839  0.25000
E36   E   0.35839  0.35839  0.75000
E37   E   0.35839  0.44134  0.36420
E38   E   0.35839  0.44134  0.63580
E39   E   0.35839  0.55866  0.13580
E40   E   0.35839  0.55866  0.86420
E41   E   0.35839  0.64161  0.25000
E42   E   0.35839  0.64161  0.75000
E43   E   0.41705  0.29973  0.50000
E44   E   0.41705  0.70027  0.00000
E45   E   0.44134  0.35839  0.13580
E46   E   0.44134  0.35839  0.86420
E47   E   0.44134  0.64161  0.36420
E48   E   0.44134  0.64161  0.63580
E49   E   0.50000  0.29973  0.25000
E50   E   0.50000  0.29973  0.75000
E51   E   0.50000  0.70027  0.25000
E52   E   0.50000  0.70027  0.75000
E53   E   0.55866  0.35839  0.36420
E54   E   0.55866  0.35839  0.63580
E55   E   0.55866  0.64161  0.13580
E56   E   0.55866  0.64161  0.86420
E57   E   0.58295  0.29973  0.00000
E58   E   0.58295  0.70027  0.50000
E59   E   0.64161  0.35839  0.25000
E60   E   0.64161  0.35839  0.75000
E61   E   0.64161  0.44134  0.13580
E62   E   0.64161  0.44134  0.86420
E63   E   0.64161  0.55866  0.36420
E64   E   0.64161  0.55866  0.63580
E65   E   0.64161  0.64161  0.25000
E66   E   0.64161  0.64161  0.75000
E67   E   0.69134  0.19134  0.13580
E68   E   0.69134  0.19134  0.86420
E69   E   0.69134  0.80866  0.36420
E70   E   0.69134  0.80866  0.63580
E71   E   0.70027  0.41705  0.50000
E72   E   0.70027  0.50000  0.25000
E73   E   0.70027  0.50000  0.75000
E74   E   0.70027  0.58295  0.00000
E75   E   0.79973  0.00000  0.25000
E76   E   0.79973  0.00000  0.75000
E77   E   0.79973  0.08295  0.00000
E78   E   0.79973  0.91705  0.50000
E79   E   0.80866  0.30866  0.36420
E80   E   0.80866  0.30866  0.63580
E81   E   0.80866  0.69134  0.13580
E82   E   0.80866  0.69134  0.86420
E83   E   0.85839  0.05866  0.36420
E84   E   0.85839  0.05866  0.63580
E85   E   0.85839  0.14161  0.25000
E86   E   0.85839  0.14161  0.75000
E87   E   0.85839  0.85839  0.25000
E88   E   0.85839  0.85839  0.75000
E89   E   0.85839  0.94134  0.13580
E90   E   0.85839  0.94134  0.86420
E91   E   0.91705  0.20027  0.50000
E92   E   0.91705  0.79973  0.00000
E93   E   0.94134  0.14161  0.13580
E94   E   0.94134  0.14161  0.86420
E95   E   0.94134  0.85839  0.36420
E96   E   0.94134  0.85839  0.63580
loop_
