data_whr_I-4c2  hall_number: 397, V_con: 6
_audit_creation_date              2025-03-05
_audit_creation_method            'MOFbuilder_1.0'
_symmetry_space_group_name_H-M    'P1'
_symmetry_Int_Tables_number       1
_symmetry_cell_setting            triclinic
loop_
_symmetry_equiv_pos_as_xyz
  x,y,z
_cell_length_a                    32.023700000000005
_cell_length_b                    32.023700000000005
_cell_length_c                    17.702199999999998
_cell_angle_alpha                 90.0
_cell_angle_beta                  90.0
_cell_angle_gamma                 90.0
loop_
_atom_site_label
_atom_site_type_symbol
_atom_site_fract_x
_atom_site_fract_y
_atom_site_fract_z
V1    V   0.07266  0.20749  0.47367
V2    V   0.07266  0.79251  0.97367
V3    V   0.20749  0.07266  0.02633
V4    V   0.20749  0.92734  0.52633
V5    V   0.29251  0.42734  0.52633
V6    V   0.29251  0.57266  0.02633
V7    V   0.42734  0.29251  0.97367
V8    V   0.42734  0.70749  0.47367
V9    V   0.57266  0.29251  0.47367
V10   V   0.57266  0.70749  0.97367
V11   V   0.70749  0.42734  0.02633
V12   V   0.70749  0.57266  0.52633
V13   V   0.79251  0.07266  0.52633
V14   V   0.79251  0.92734  0.02633
V15   V   0.92734  0.20749  0.97367
V16   V   0.92734  0.79251  0.47367
E1    E   0.00000  0.20749  0.22367
E2    E   0.00000  0.20749  0.72367
E3    E   0.00000  0.79251  0.22367
E4    E   0.00000  0.79251  0.72367
E5    E   0.06742  0.14008  0.00000
E6    E   0.06742  0.85992  0.50000
E7    E   0.14008  0.06742  0.50000
E8    E   0.14008  0.14008  0.25000
E9    E   0.14008  0.85992  0.75000
E10   E   0.14008  0.93258  0.00000
E11   E   0.18258  0.31742  0.50000
E12   E   0.18258  0.68258  0.00000
E13   E   0.18258  0.31742  0.50000
E14   E   0.18258  0.68258  0.00000
E15   E   0.20749  0.00000  0.27633
E16   E   0.20749  0.00000  0.77633
E17   E   0.29251  0.50000  0.27633
E18   E   0.29251  0.50000  0.77633
E19   E   0.31742  0.18258  0.00000
E20   E   0.31742  0.81742  0.50000
E21   E   0.31742  0.18258  0.00000
E22   E   0.31742  0.81742  0.50000
E23   E   0.35992  0.35992  0.75000
E24   E   0.35992  0.43258  0.00000
E25   E   0.35992  0.56742  0.50000
E26   E   0.35992  0.64008  0.25000
E27   E   0.43258  0.35992  0.50000
E28   E   0.43258  0.64008  0.00000
E29   E   0.50000  0.29251  0.22367
E30   E   0.50000  0.29251  0.72367
E31   E   0.50000  0.70749  0.22367
E32   E   0.50000  0.70749  0.72367
E33   E   0.56742  0.35992  0.00000
E34   E   0.56742  0.64008  0.50000
E35   E   0.64008  0.35992  0.25000
E36   E   0.64008  0.43258  0.50000
E37   E   0.64008  0.56742  0.00000
E38   E   0.64008  0.64008  0.75000
E39   E   0.68258  0.18258  0.50000
E40   E   0.68258  0.18258  0.50000
E41   E   0.68258  0.81742  0.00000
E42   E   0.70749  0.50000  0.27633
E43   E   0.70749  0.50000  0.77633
E44   E   0.79251  0.00000  0.27633
E45   E   0.79251  0.00000  0.77633
E46   E   0.81742  0.31742  0.00000
E47   E   0.81742  0.31742  0.00000
E48   E   0.81742  0.68258  0.50000
E49   E   0.85992  0.06742  0.00000
E50   E   0.85992  0.14008  0.75000
E51   E   0.85992  0.85992  0.25000
E52   E   0.85992  0.93258  0.50000
E53   E   0.93258  0.14008  0.50000
E54   E   0.93258  0.85992  0.00000
loop_
