data_whx_I41/a:2  hall_number: 365, V_con: 6
_audit_creation_date              2025-03-05
_audit_creation_method            'MOFbuilder_1.0'
_symmetry_space_group_name_H-M    'P1'
_symmetry_Int_Tables_number       1
_symmetry_cell_setting            triclinic
loop_
_symmetry_equiv_pos_as_xyz
  x,y,z
_cell_length_a                    28.226
_cell_length_b                    28.226
_cell_length_c                    28.4007
_cell_angle_alpha                 90.0
_cell_angle_beta                  90.0
_cell_angle_gamma                 90.0
loop_
_atom_site_label
_atom_site_type_symbol
_atom_site_fract_x
_atom_site_fract_y
_atom_site_fract_z
V1    V   0.12500  0.12448  0.74949
V2    V   0.12500  0.62448  0.25051
V3    V   0.12552  0.37500  0.50051
V4    V   0.12552  0.87500  0.49949
V5    V   0.37448  0.12500  0.99949
V6    V   0.37448  0.62500  0.00051
V7    V   0.37500  0.37552  0.75051
V8    V   0.37500  0.87552  0.24949
V9    V   0.62500  0.12448  0.75051
V10   V   0.62500  0.62448  0.24949
V11   V   0.62552  0.37500  0.99949
V12   V   0.62552  0.87500  0.00051
V13   V   0.87448  0.12500  0.50051
V14   V   0.87448  0.62500  0.49949
V15   V   0.87500  0.37552  0.74949
V16   V   0.87500  0.87552  0.25051
E1    E   0.00000  0.00000  0.50000
E2    E   0.00000  0.25000  0.50051
E3    E   0.00000  0.25000  0.74949
E4    E   0.00000  0.50000  0.50000
E5    E   0.00000  0.75000  0.25051
E6    E   0.00000  0.75000  0.49949
E7    E   0.00026  0.37526  0.62500
E8    E   0.00026  0.87526  0.37500
E9    E   0.12526  0.24974  0.62500
E10   E   0.12526  0.49974  0.37551
E11   E   0.12526  0.74974  0.37500
E12   E   0.12526  0.99974  0.62449
E13   E   0.24974  0.12474  0.87449
E14   E   0.24974  0.62474  0.12551
E15   E   0.25000  0.25000  0.75000
E16   E   0.25000  0.75000  0.25000
E17   E   0.25026  0.37526  0.62551
E18   E   0.25026  0.87526  0.37449
E19   E   0.37474  0.00026  0.12449
E20   E   0.37474  0.25026  0.87500
E21   E   0.37474  0.50026  0.87551
E22   E   0.37474  0.75026  0.12500
E23   E   0.49974  0.12474  0.87500
E24   E   0.49974  0.62474  0.12500
E25   E   0.50000  0.00000  0.00000
E26   E   0.50000  0.25000  0.75051
E27   E   0.50000  0.25000  0.99949
E28   E   0.50000  0.50000  0.00000
E29   E   0.50000  0.75000  0.00051
E30   E   0.50000  0.75000  0.24949
E31   E   0.50026  0.37526  0.87500
E32   E   0.50026  0.87526  0.12500
E33   E   0.62526  0.24974  0.87500
E34   E   0.62526  0.49974  0.12449
E35   E   0.62526  0.74974  0.12500
E36   E   0.62526  0.99974  0.87551
E37   E   0.74974  0.12474  0.62551
E38   E   0.74974  0.62474  0.37449
E39   E   0.75000  0.25000  0.75000
E40   E   0.75000  0.75000  0.25000
E41   E   0.75026  0.37526  0.87449
E42   E   0.75026  0.87526  0.12551
E43   E   0.87474  0.00026  0.37551
E44   E   0.87474  0.25026  0.62500
E45   E   0.87474  0.50026  0.62449
E46   E   0.87474  0.75026  0.37500
E47   E   0.99974  0.12474  0.62500
E48   E   0.99974  0.62474  0.37500
loop_
