data_why_I41/a:2  hall_number: 365, V_con: 6
_audit_creation_date              2025-03-05
_audit_creation_method            'MOFbuilder_1.0'
_symmetry_space_group_name_H-M    'P1'
_symmetry_Int_Tables_number       1
_symmetry_cell_setting            triclinic
loop_
_symmetry_equiv_pos_as_xyz
  x,y,z
_cell_length_a                    29.863
_cell_length_b                    29.863
_cell_length_c                    19.0565
_cell_angle_alpha                 90.0
_cell_angle_beta                  90.0
_cell_angle_gamma                 90.0
loop_
_atom_site_label
_atom_site_type_symbol
_atom_site_fract_x
_atom_site_fract_y
_atom_site_fract_z
V1    V   0.06515  0.09576  0.81053
V2    V   0.06515  0.59576  0.18947
V3    V   0.15424  0.31515  0.43947
V4    V   0.15424  0.81515  0.56053
V5    V   0.34576  0.18485  0.06053
V6    V   0.34576  0.68485  0.93947
V7    V   0.43485  0.40424  0.68947
V8    V   0.43485  0.90424  0.31053
V9    V   0.56515  0.09576  0.68947
V10   V   0.56515  0.59576  0.31053
V11   V   0.65424  0.31515  0.06053
V12   V   0.65424  0.81515  0.93947
V13   V   0.84576  0.18485  0.43947
V14   V   0.84576  0.68485  0.56053
V15   V   0.93485  0.40424  0.81053
V16   V   0.93485  0.90424  0.18947
E1    E   0.00000  0.00000  0.00000
E2    E   0.00000  0.25000  0.43947
E3    E   0.00000  0.25000  0.81053
E4    E   0.00000  0.50000  0.00000
E5    E   0.00000  0.75000  0.18947
E6    E   0.00000  0.75000  0.56053
E7    E   0.04455  0.35969  0.62500
E8    E   0.04455  0.85969  0.37500
E9    E   0.10969  0.20545  0.62500
E10   E   0.10969  0.45545  0.31447
E11   E   0.10969  0.70545  0.37500
E12   E   0.10969  0.95545  0.68553
E13   E   0.20545  0.14031  0.93553
E14   E   0.20545  0.64031  0.06447
E15   E   0.25000  0.25000  0.25000
E16   E   0.25000  0.75000  0.75000
E17   E   0.29455  0.35969  0.56447
E18   E   0.29455  0.85969  0.43553
E19   E   0.39031  0.04455  0.18553
E20   E   0.39031  0.29455  0.87500
E21   E   0.39031  0.54455  0.81447
E22   E   0.39031  0.79455  0.12500
E23   E   0.45545  0.14031  0.87500
E24   E   0.45545  0.64031  0.12500
E25   E   0.50000  0.00000  0.50000
E26   E   0.50000  0.25000  0.06053
E27   E   0.50000  0.25000  0.68947
E28   E   0.50000  0.50000  0.50000
E29   E   0.50000  0.75000  0.31053
E30   E   0.50000  0.75000  0.93947
E31   E   0.54455  0.35969  0.87500
E32   E   0.54455  0.85969  0.12500
E33   E   0.60969  0.20545  0.87500
E34   E   0.60969  0.45545  0.18553
E35   E   0.60969  0.70545  0.12500
E36   E   0.60969  0.95545  0.81447
E37   E   0.70545  0.14031  0.56447
E38   E   0.70545  0.64031  0.43553
E39   E   0.75000  0.25000  0.25000
E40   E   0.75000  0.75000  0.75000
E41   E   0.79455  0.35969  0.93553
E42   E   0.79455  0.85969  0.06447
E43   E   0.89031  0.04455  0.31447
E44   E   0.89031  0.29455  0.62500
E45   E   0.89031  0.54455  0.68553
E46   E   0.89031  0.79455  0.37500
E47   E   0.95545  0.14031  0.62500
E48   E   0.95545  0.64031  0.37500
loop_
