data_wie_I41/a:2  hall_number: 365, V_con: 6
_audit_creation_date              2025-03-05
_audit_creation_method            'MOFbuilder_1.0'
_symmetry_space_group_name_H-M    'P1'
_symmetry_Int_Tables_number       1
_symmetry_cell_setting            triclinic
loop_
_symmetry_equiv_pos_as_xyz
  x,y,z
_cell_length_a                    17.615099999999998
_cell_length_b                    17.615099999999998
_cell_length_c                    45.041399999999996
_cell_angle_alpha                 90.0
_cell_angle_beta                  90.0
_cell_angle_gamma                 90.0
loop_
_atom_site_label
_atom_site_type_symbol
_atom_site_fract_x
_atom_site_fract_y
_atom_site_fract_z
V1    V   0.20071  0.04929  0.82609
V2    V   0.20071  0.45071  0.42391
V3    V   0.20071  0.54929  0.17391
V4    V   0.20071  0.95071  0.57609
V5    V   0.29929  0.04929  0.07609
V6    V   0.29929  0.45071  0.67391
V7    V   0.29929  0.54929  0.92391
V8    V   0.29929  0.95071  0.32609
V9    V   0.70071  0.04929  0.67391
V10   V   0.70071  0.45071  0.07609
V11   V   0.70071  0.54929  0.32609
V12   V   0.70071  0.95071  0.92391
V13   V   0.79929  0.04929  0.42391
V14   V   0.79929  0.45071  0.82609
V15   V   0.79929  0.54929  0.57609
V16   V   0.79929  0.95071  0.17391
E1    E   0.00000  0.00000  0.50000
E2    E   0.00000  0.25000  0.42391
E3    E   0.00000  0.25000  0.82609
E4    E   0.00000  0.50000  0.50000
E5    E   0.00000  0.75000  0.17391
E6    E   0.00000  0.75000  0.57609
E7    E   0.04929  0.00000  0.37500
E8    E   0.04929  0.50000  0.62500
E9    E   0.04929  0.00000  0.12500
E10   E   0.04929  0.50000  0.87500
E11   E   0.25000  0.20071  0.37500
E12   E   0.25000  0.20071  0.62500
E13   E   0.25000  0.25000  0.75000
E14   E   0.25000  0.29929  0.12500
E15   E   0.25000  0.29929  0.87500
E16   E   0.25000  0.70071  0.37500
E17   E   0.25000  0.70071  0.62500
E18   E   0.25000  0.75000  0.25000
E19   E   0.25000  0.79929  0.12500
E20   E   0.25000  0.79929  0.87500
E21   E   0.45071  0.00000  0.62500
E22   E   0.45071  0.00000  0.87500
E23   E   0.45071  0.50000  0.12500
E24   E   0.45071  0.50000  0.37500
E25   E   0.50000  0.00000  0.00000
E26   E   0.50000  0.25000  0.07609
E27   E   0.50000  0.25000  0.67391
E28   E   0.50000  0.50000  0.00000
E29   E   0.50000  0.75000  0.32609
E30   E   0.50000  0.75000  0.92391
E31   E   0.54929  0.00000  0.12500
E32   E   0.54929  0.00000  0.37500
E33   E   0.54929  0.50000  0.62500
E34   E   0.54929  0.50000  0.87500
E35   E   0.75000  0.20071  0.12500
E36   E   0.75000  0.20071  0.87500
E37   E   0.75000  0.25000  0.75000
E38   E   0.75000  0.29929  0.37500
E39   E   0.75000  0.29929  0.62500
E40   E   0.75000  0.70071  0.12500
E41   E   0.75000  0.70071  0.87500
E42   E   0.75000  0.75000  0.25000
E43   E   0.75000  0.79929  0.37500
E44   E   0.75000  0.79929  0.62500
E45   E   0.95071  0.00000  0.62500
E46   E   0.95071  0.00000  0.87500
E47   E   0.95071  0.50000  0.12500
E48   E   0.95071  0.50000  0.37500
loop_
