data_wig_I-42d  hall_number: 399, V_con: 6
_audit_creation_date              2025-03-05
_audit_creation_method            'MOFbuilder_1.0'
_symmetry_space_group_name_H-M    'P1'
_symmetry_Int_Tables_number       1
_symmetry_cell_setting            triclinic
loop_
_symmetry_equiv_pos_as_xyz
  x,y,z
_cell_length_a                    18.0673
_cell_length_b                    18.0673
_cell_length_c                    54.4754
_cell_angle_alpha                 90.0
_cell_angle_beta                  90.0
_cell_angle_gamma                 90.0
loop_
_atom_site_label
_atom_site_type_symbol
_atom_site_fract_x
_atom_site_fract_y
_atom_site_fract_z
V1    V   0.19569  0.19569  0.28500
V2    V   0.19569  0.30431  0.96500
V3    V   0.19569  0.69569  0.53500
V4    V   0.19569  0.80431  0.71500
V5    V   0.30431  0.19569  0.46500
V6    V   0.30431  0.30431  0.78500
V7    V   0.30431  0.69569  0.21500
V8    V   0.30431  0.80431  0.03500
V9    V   0.69569  0.19569  0.03500
V10   V   0.69569  0.30431  0.21500
V11   V   0.69569  0.69569  0.78500
V12   V   0.69569  0.80431  0.46500
V13   V   0.80431  0.19569  0.71500
V14   V   0.80431  0.30431  0.53500
V15   V   0.80431  0.69569  0.96500
V16   V   0.80431  0.80431  0.28500
E1    E   0.00000  0.00000  0.28500
E2    E   0.00000  0.00000  0.71500
E3    E   0.00000  0.50000  0.53500
E4    E   0.00000  0.50000  0.96500
E5    E   0.05431  0.25000  0.50000
E6    E   0.05431  0.25000  0.75000
E7    E   0.05431  0.75000  0.00000
E8    E   0.05431  0.75000  0.25000
E9    E   0.19569  0.75000  0.62500
E10   E   0.25000  0.05431  0.00000
E11   E   0.25000  0.05431  0.75000
E12   E   0.25000  0.19569  0.37500
E13   E   0.25000  0.30431  0.87500
E14   E   0.25000  0.44569  0.25000
E15   E   0.25000  0.44569  0.50000
E16   E   0.25000  0.55431  0.00000
E17   E   0.25000  0.55431  0.75000
E18   E   0.25000  0.94569  0.25000
E19   E   0.25000  0.94569  0.50000
E20   E   0.30431  0.75000  0.12500
E21   E   0.44569  0.75000  0.50000
E22   E   0.44569  0.75000  0.75000
E23   E   0.44569  0.25000  0.00000
E24   E   0.44569  0.25000  0.25000
E25   E   0.50000  0.00000  0.03500
E26   E   0.50000  0.00000  0.46500
E27   E   0.50000  0.50000  0.21500
E28   E   0.50000  0.50000  0.78500
E29   E   0.55431  0.75000  0.00000
E30   E   0.55431  0.75000  0.25000
E31   E   0.55431  0.25000  0.50000
E32   E   0.55431  0.25000  0.75000
E33   E   0.69569  0.25000  0.12500
E34   E   0.75000  0.05431  0.25000
E35   E   0.75000  0.05431  0.50000
E36   E   0.75000  0.44569  0.00000
E37   E   0.75000  0.44569  0.75000
E38   E   0.75000  0.55431  0.25000
E39   E   0.75000  0.55431  0.50000
E40   E   0.75000  0.69569  0.87500
E41   E   0.75000  0.80431  0.37500
E42   E   0.75000  0.94569  0.00000
E43   E   0.75000  0.94569  0.75000
E44   E   0.80431  0.25000  0.62500
E45   E   0.94569  0.25000  0.00000
E46   E   0.94569  0.25000  0.25000
E47   E   0.94569  0.75000  0.50000
E48   E   0.94569  0.75000  0.75000
loop_
