data_wih_I41/amd:2  hall_number: 427, V_con: 6
_audit_creation_date              2025-03-05
_audit_creation_method            'MOFbuilder_1.0'
_symmetry_space_group_name_H-M    'P1'
_symmetry_Int_Tables_number       1
_symmetry_cell_setting            triclinic
loop_
_symmetry_equiv_pos_as_xyz
  x,y,z
_cell_length_a                    64.7065
_cell_length_b                    64.7065
_cell_length_c                    10.0
_cell_angle_alpha                 90.0
_cell_angle_beta                  90.0
_cell_angle_gamma                 90.0
loop_
_atom_site_label
_atom_site_type_symbol
_atom_site_fract_x
_atom_site_fract_y
_atom_site_fract_z
V1    V   0.07727  0.06692  0.75000
V2    V   0.07727  0.43308  0.75000
V3    V   0.07727  0.56692  0.25000
V4    V   0.07727  0.93308  0.25000
V5    V   0.18308  0.17273  0.00000
V6    V   0.18308  0.32727  0.00000
V7    V   0.18308  0.67273  0.00000
V8    V   0.18308  0.82727  0.00000
V9    V   0.31692  0.17273  0.50000
V10   V   0.31692  0.32727  0.50000
V11   V   0.31692  0.67273  0.50000
V12   V   0.31692  0.82727  0.50000
V13   V   0.42273  0.06692  0.75000
V14   V   0.42273  0.43308  0.75000
V15   V   0.42273  0.56692  0.25000
V16   V   0.42273  0.93308  0.25000
V17   V   0.57727  0.06692  0.75000
V18   V   0.57727  0.43308  0.75000
V19   V   0.57727  0.56692  0.25000
V20   V   0.57727  0.93308  0.25000
V21   V   0.68308  0.17273  0.50000
V22   V   0.68308  0.32727  0.50000
V23   V   0.68308  0.67273  0.50000
V24   V   0.68308  0.82727  0.50000
V25   V   0.81692  0.17273  0.00000
V26   V   0.81692  0.32727  0.00000
V27   V   0.81692  0.67273  0.00000
V28   V   0.81692  0.82727  0.00000
V29   V   0.92273  0.06692  0.75000
V30   V   0.92273  0.43308  0.75000
V31   V   0.92273  0.56692  0.25000
V32   V   0.92273  0.93308  0.25000
E1    E   0.00000  0.06692  0.75000
E2    E   0.00000  0.43308  0.75000
E3    E   0.00000  0.56692  0.25000
E4    E   0.00000  0.93308  0.25000
E5    E   0.07727  0.00000  0.00000
E6    E   0.07727  0.00000  0.50000
E7    E   0.07727  0.06692  0.25000
E8    E   0.07727  0.43308  0.25000
E9    E   0.07727  0.50000  0.00000
E10   E   0.07727  0.50000  0.50000
E11   E   0.07727  0.56692  0.75000
E12   E   0.07727  0.93308  0.75000
E13   E   0.13018  0.11982  0.87500
E14   E   0.13018  0.11982  0.87500
E15   E   0.13018  0.38018  0.87500
E16   E   0.13018  0.61982  0.12500
E17   E   0.13018  0.88018  0.12500
E18   E   0.18308  0.17273  0.50000
E19   E   0.18308  0.25000  0.00000
E20   E   0.18308  0.32727  0.50000
E21   E   0.18308  0.67273  0.50000
E22   E   0.18308  0.75000  0.00000
E23   E   0.18308  0.82727  0.50000
E24   E   0.25000  0.17273  0.25000
E25   E   0.25000  0.17273  0.75000
E26   E   0.25000  0.32727  0.25000
E27   E   0.25000  0.32727  0.75000
E28   E   0.25000  0.67273  0.25000
E29   E   0.25000  0.67273  0.75000
E30   E   0.25000  0.82727  0.25000
E31   E   0.25000  0.82727  0.75000
E32   E   0.31692  0.17273  0.00000
E33   E   0.31692  0.25000  0.50000
E34   E   0.31692  0.32727  0.00000
E35   E   0.31692  0.67273  0.00000
E36   E   0.31692  0.75000  0.50000
E37   E   0.31692  0.82727  0.00000
E38   E   0.36982  0.11982  0.62500
E39   E   0.36982  0.11982  0.62500
E40   E   0.36982  0.38018  0.62500
E41   E   0.36982  0.61982  0.37500
E42   E   0.36982  0.88018  0.37500
E43   E   0.42273  0.00000  0.00000
E44   E   0.42273  0.00000  0.50000
E45   E   0.42273  0.06692  0.25000
E46   E   0.42273  0.43308  0.25000
E47   E   0.42273  0.50000  0.00000
E48   E   0.42273  0.50000  0.50000
E49   E   0.42273  0.56692  0.75000
E50   E   0.42273  0.93308  0.75000
E51   E   0.50000  0.06692  0.75000
E52   E   0.50000  0.43308  0.75000
E53   E   0.50000  0.56692  0.25000
E54   E   0.50000  0.93308  0.25000
E55   E   0.57727  0.00000  0.00000
E56   E   0.57727  0.00000  0.50000
E57   E   0.57727  0.06692  0.25000
E58   E   0.57727  0.43308  0.25000
E59   E   0.57727  0.50000  0.00000
E60   E   0.57727  0.50000  0.50000
E61   E   0.57727  0.56692  0.75000
E62   E   0.57727  0.93308  0.75000
E63   E   0.63018  0.11982  0.62500
E64   E   0.63018  0.11982  0.62500
E65   E   0.63018  0.38018  0.62500
E66   E   0.63018  0.61982  0.37500
E67   E   0.63018  0.88018  0.37500
E68   E   0.68308  0.17273  0.00000
E69   E   0.68308  0.25000  0.50000
E70   E   0.68308  0.32727  0.00000
E71   E   0.68308  0.67273  0.00000
E72   E   0.68308  0.75000  0.50000
E73   E   0.68308  0.82727  0.00000
E74   E   0.75000  0.17273  0.25000
E75   E   0.75000  0.17273  0.75000
E76   E   0.75000  0.32727  0.25000
E77   E   0.75000  0.32727  0.75000
E78   E   0.75000  0.67273  0.25000
E79   E   0.75000  0.67273  0.75000
E80   E   0.75000  0.82727  0.25000
E81   E   0.75000  0.82727  0.75000
E82   E   0.81692  0.17273  0.50000
E83   E   0.81692  0.25000  0.00000
E84   E   0.81692  0.32727  0.50000
E85   E   0.81692  0.67273  0.50000
E86   E   0.81692  0.75000  0.00000
E87   E   0.81692  0.82727  0.50000
E88   E   0.86982  0.11982  0.87500
E89   E   0.86982  0.11982  0.87500
E90   E   0.86982  0.38018  0.87500
E91   E   0.86982  0.61982  0.12500
E92   E   0.86982  0.88018  0.12500
E93   E   0.92273  0.00000  0.00000
E94   E   0.92273  0.00000  0.50000
E95   E   0.92273  0.06692  0.25000
E96   E   0.92273  0.43308  0.25000
E97   E   0.92273  0.50000  0.00000
E98   E   0.92273  0.50000  0.50000
E99   E   0.92273  0.56692  0.75000
E100  E   0.92273  0.93308  0.75000
loop_
