data_wii_I41/amd:2  hall_number: 427, V_con: 6
_audit_creation_date              2025-03-05
_audit_creation_method            'MOFbuilder_1.0'
_symmetry_space_group_name_H-M    'P1'
_symmetry_Int_Tables_number       1
_symmetry_cell_setting            triclinic
loop_
_symmetry_equiv_pos_as_xyz
  x,y,z
_cell_length_a                    63.859899999999996
_cell_length_b                    63.859899999999996
_cell_length_c                    10.0
_cell_angle_alpha                 90.0
_cell_angle_beta                  90.0
_cell_angle_gamma                 90.0
loop_
_atom_site_label
_atom_site_type_symbol
_atom_site_fract_x
_atom_site_fract_y
_atom_site_fract_z
V1    V   0.07830  0.07581  0.62500
V2    V   0.07830  0.42419  0.62500
V3    V   0.07830  0.57581  0.37500
V4    V   0.07830  0.92419  0.37500
V5    V   0.17419  0.17170  0.12500
V6    V   0.17419  0.32830  0.12500
V7    V   0.17419  0.67170  0.87500
V8    V   0.17419  0.82830  0.87500
V9    V   0.32581  0.17170  0.37500
V10   V   0.32581  0.32830  0.37500
V11   V   0.32581  0.67170  0.62500
V12   V   0.32581  0.82830  0.62500
V13   V   0.42170  0.07581  0.87500
V14   V   0.42170  0.42419  0.87500
V15   V   0.42170  0.57581  0.12500
V16   V   0.42170  0.92419  0.12500
V17   V   0.57830  0.07581  0.87500
V18   V   0.57830  0.42419  0.87500
V19   V   0.57830  0.57581  0.12500
V20   V   0.57830  0.92419  0.12500
V21   V   0.67419  0.17170  0.37500
V22   V   0.67419  0.32830  0.37500
V23   V   0.67419  0.67170  0.62500
V24   V   0.67419  0.82830  0.62500
V25   V   0.82581  0.17170  0.12500
V26   V   0.82581  0.32830  0.12500
V27   V   0.82581  0.67170  0.87500
V28   V   0.82581  0.82830  0.87500
V29   V   0.92170  0.07581  0.62500
V30   V   0.92170  0.42419  0.62500
V31   V   0.92170  0.57581  0.37500
V32   V   0.92170  0.92419  0.37500
E1    E   0.00000  0.07581  0.62500
E2    E   0.00000  0.42419  0.62500
E3    E   0.00000  0.57581  0.37500
E4    E   0.00000  0.92419  0.37500
E5    E   0.07830  0.00000  0.50000
E6    E   0.07830  0.07581  0.12500
E7    E   0.07830  0.42419  0.12500
E8    E   0.07830  0.50000  0.50000
E9    E   0.07830  0.57581  0.87500
E10   E   0.07830  0.92419  0.87500
E11   E   0.12624  0.12376  0.37500
E12   E   0.12624  0.12376  0.87500
E13   E   0.12624  0.37624  0.37500
E14   E   0.12624  0.37624  0.87500
E15   E   0.12624  0.62376  0.12500
E16   E   0.12624  0.62376  0.62500
E17   E   0.12624  0.87624  0.12500
E18   E   0.12624  0.87624  0.62500
E19   E   0.12624  0.12376  0.37500
E20   E   0.12624  0.12376  0.87500
E21   E   0.12624  0.37624  0.37500
E22   E   0.12624  0.37624  0.87500
E23   E   0.12624  0.62376  0.12500
E24   E   0.12624  0.62376  0.62500
E25   E   0.12624  0.87624  0.12500
E26   E   0.12624  0.87624  0.62500
E27   E   0.17419  0.17170  0.62500
E28   E   0.17419  0.25000  0.12500
E29   E   0.17419  0.32830  0.62500
E30   E   0.17419  0.67170  0.37500
E31   E   0.17419  0.75000  0.87500
E32   E   0.17419  0.82830  0.37500
E33   E   0.25000  0.17170  0.25000
E34   E   0.25000  0.32830  0.25000
E35   E   0.25000  0.67170  0.75000
E36   E   0.25000  0.82830  0.75000
E37   E   0.32581  0.17170  0.87500
E38   E   0.32581  0.25000  0.37500
E39   E   0.32581  0.32830  0.87500
E40   E   0.32581  0.67170  0.12500
E41   E   0.32581  0.75000  0.62500
E42   E   0.32581  0.82830  0.12500
E43   E   0.37376  0.12376  0.12500
E44   E   0.37376  0.12376  0.62500
E45   E   0.37376  0.12376  0.12500
E46   E   0.37376  0.12376  0.62500
E47   E   0.37376  0.37624  0.12500
E48   E   0.37376  0.37624  0.62500
E49   E   0.37376  0.62376  0.37500
E50   E   0.37376  0.62376  0.87500
E51   E   0.37376  0.87624  0.37500
E52   E   0.37376  0.87624  0.87500
E53   E   0.42170  0.00000  0.00000
E54   E   0.42170  0.07581  0.37500
E55   E   0.42170  0.42419  0.37500
E56   E   0.42170  0.50000  0.00000
E57   E   0.42170  0.57581  0.62500
E58   E   0.42170  0.92419  0.62500
E59   E   0.50000  0.07581  0.87500
E60   E   0.50000  0.42419  0.87500
E61   E   0.50000  0.57581  0.12500
E62   E   0.50000  0.92419  0.12500
E63   E   0.57830  0.00000  0.00000
E64   E   0.57830  0.07581  0.37500
E65   E   0.57830  0.42419  0.37500
E66   E   0.57830  0.50000  0.00000
E67   E   0.57830  0.57581  0.62500
E68   E   0.57830  0.92419  0.62500
E69   E   0.62624  0.12376  0.12500
E70   E   0.62624  0.12376  0.62500
E71   E   0.62624  0.12376  0.12500
E72   E   0.62624  0.12376  0.62500
E73   E   0.62624  0.37624  0.12500
E74   E   0.62624  0.37624  0.62500
E75   E   0.62624  0.62376  0.37500
E76   E   0.62624  0.62376  0.87500
E77   E   0.62624  0.87624  0.37500
E78   E   0.62624  0.87624  0.87500
E79   E   0.67419  0.17170  0.87500
E80   E   0.67419  0.25000  0.37500
E81   E   0.67419  0.32830  0.87500
E82   E   0.67419  0.67170  0.12500
E83   E   0.67419  0.75000  0.62500
E84   E   0.67419  0.82830  0.12500
E85   E   0.75000  0.17170  0.25000
E86   E   0.75000  0.32830  0.25000
E87   E   0.75000  0.67170  0.75000
E88   E   0.75000  0.82830  0.75000
E89   E   0.82581  0.17170  0.62500
E90   E   0.82581  0.25000  0.12500
E91   E   0.82581  0.32830  0.62500
E92   E   0.82581  0.67170  0.37500
E93   E   0.82581  0.75000  0.87500
E94   E   0.82581  0.82830  0.37500
E95   E   0.87376  0.12376  0.37500
E96   E   0.87376  0.12376  0.87500
E97   E   0.87376  0.12376  0.37500
E98   E   0.87376  0.12376  0.87500
E99   E   0.87376  0.37624  0.37500
E100  E   0.87376  0.37624  0.87500
E101  E   0.87376  0.62376  0.12500
E102  E   0.87376  0.62376  0.62500
E103  E   0.87376  0.87624  0.12500
E104  E   0.87376  0.87624  0.62500
E105  E   0.92170  0.00000  0.50000
E106  E   0.92170  0.07581  0.12500
E107  E   0.92170  0.42419  0.12500
E108  E   0.92170  0.50000  0.50000
E109  E   0.92170  0.57581  0.87500
E110  E   0.92170  0.92419  0.87500
loop_
