data_wij_I41/acd:2  hall_number: 429, V_con: 6
_audit_creation_date              2025-03-05
_audit_creation_method            'MOFbuilder_1.0'
_symmetry_space_group_name_H-M    'P1'
_symmetry_Int_Tables_number       1
_symmetry_cell_setting            triclinic
loop_
_symmetry_equiv_pos_as_xyz
  x,y,z
_cell_length_a                    65.23729999999999
_cell_length_b                    65.23729999999999
_cell_length_c                    9.9999
_cell_angle_alpha                 90.0
_cell_angle_beta                  90.0
_cell_angle_gamma                 90.0
loop_
_atom_site_label
_atom_site_type_symbol
_atom_site_fract_x
_atom_site_fract_y
_atom_site_fract_z
V1    V   0.06638  0.07584  0.17779
V2    V   0.06638  0.42416  0.67779
V3    V   0.06638  0.57584  0.82221
V4    V   0.06638  0.92416  0.32221
V5    V   0.17416  0.18362  0.07221
V6    V   0.17416  0.31638  0.57221
V7    V   0.17416  0.68362  0.92779
V8    V   0.17416  0.81638  0.42779
V9    V   0.32584  0.18362  0.92779
V10   V   0.32584  0.31638  0.42779
V11   V   0.32584  0.68362  0.07221
V12   V   0.32584  0.81638  0.57221
V13   V   0.43362  0.07584  0.82221
V14   V   0.43362  0.42416  0.32221
V15   V   0.43362  0.57584  0.17779
V16   V   0.43362  0.92416  0.67779
V17   V   0.56638  0.07584  0.32221
V18   V   0.56638  0.42416  0.82221
V19   V   0.56638  0.57584  0.67779
V20   V   0.56638  0.92416  0.17779
V21   V   0.67416  0.18362  0.42779
V22   V   0.67416  0.31638  0.92779
V23   V   0.67416  0.68362  0.57221
V24   V   0.67416  0.81638  0.07221
V25   V   0.82584  0.18362  0.57221
V26   V   0.82584  0.31638  0.07221
V27   V   0.82584  0.68362  0.42779
V28   V   0.82584  0.81638  0.92779
V29   V   0.93362  0.07584  0.67779
V30   V   0.93362  0.42416  0.17779
V31   V   0.93362  0.57584  0.32221
V32   V   0.93362  0.92416  0.82221
E1    E   0.00000  0.07584  0.42779
E2    E   0.00000  0.07584  0.92779
E3    E   0.00000  0.42416  0.42779
E4    E   0.00000  0.42416  0.92779
E5    E   0.00000  0.57584  0.07221
E6    E   0.00000  0.57584  0.57221
E7    E   0.00000  0.92416  0.07221
E8    E   0.00000  0.92416  0.57221
E9    E   0.06638  0.00000  0.25000
E10   E   0.06638  0.07584  0.67779
E11   E   0.06638  0.42416  0.17779
E12   E   0.06638  0.50000  0.75000
E13   E   0.06638  0.57584  0.32221
E14   E   0.06638  0.92416  0.82221
E15   E   0.12027  0.12973  0.12500
E16   E   0.12027  0.37027  0.62500
E17   E   0.12027  0.62973  0.87500
E18   E   0.12027  0.87027  0.37500
E19   E   0.12027  0.12973  0.12500
E20   E   0.12027  0.37027  0.62500
E21   E   0.12027  0.62973  0.87500
E22   E   0.12027  0.87027  0.37500
E23   E   0.17416  0.18362  0.57221
E24   E   0.17416  0.25000  0.32221
E25   E   0.17416  0.25000  0.82221
E26   E   0.17416  0.31638  0.07221
E27   E   0.17416  0.68362  0.42779
E28   E   0.17416  0.75000  0.17779
E29   E   0.17416  0.75000  0.67779
E30   E   0.17416  0.81638  0.92779
E31   E   0.25000  0.18362  0.00000
E32   E   0.25000  0.31638  0.50000
E33   E   0.25000  0.68362  0.00000
E34   E   0.25000  0.81638  0.50000
E35   E   0.32584  0.18362  0.42779
E36   E   0.32584  0.25000  0.17779
E37   E   0.32584  0.25000  0.67779
E38   E   0.32584  0.31638  0.92779
E39   E   0.32584  0.68362  0.57221
E40   E   0.32584  0.75000  0.32221
E41   E   0.32584  0.75000  0.82221
E42   E   0.32584  0.81638  0.07221
E43   E   0.37973  0.12973  0.87500
E44   E   0.37973  0.37027  0.37500
E45   E   0.37973  0.62973  0.12500
E46   E   0.37973  0.87027  0.62500
E47   E   0.43362  0.00000  0.75000
E48   E   0.43362  0.07584  0.32221
E49   E   0.43362  0.42416  0.82221
E50   E   0.43362  0.50000  0.25000
E51   E   0.43362  0.57584  0.67779
E52   E   0.43362  0.92416  0.17779
E53   E   0.50000  0.07584  0.07221
E54   E   0.50000  0.07584  0.57221
E55   E   0.50000  0.42416  0.07221
E56   E   0.50000  0.42416  0.57221
E57   E   0.50000  0.57584  0.42779
E58   E   0.50000  0.57584  0.92779
E59   E   0.50000  0.92416  0.42779
E60   E   0.50000  0.92416  0.92779
E61   E   0.56638  0.00000  0.25000
E62   E   0.56638  0.07584  0.82221
E63   E   0.56638  0.42416  0.32221
E64   E   0.56638  0.50000  0.75000
E65   E   0.56638  0.57584  0.17779
E66   E   0.56638  0.92416  0.67779
E67   E   0.62027  0.12973  0.37500
E68   E   0.62027  0.37027  0.87500
E69   E   0.62027  0.62973  0.62500
E70   E   0.62027  0.87027  0.12500
E71   E   0.67416  0.18362  0.92779
E72   E   0.67416  0.25000  0.17779
E73   E   0.67416  0.25000  0.67779
E74   E   0.67416  0.31638  0.42779
E75   E   0.67416  0.68362  0.07221
E76   E   0.67416  0.75000  0.32221
E77   E   0.67416  0.75000  0.82221
E78   E   0.67416  0.81638  0.57221
E79   E   0.75000  0.18362  0.50000
E80   E   0.75000  0.31638  0.00000
E81   E   0.75000  0.68362  0.50000
E82   E   0.75000  0.81638  0.00000
E83   E   0.82584  0.18362  0.07221
E84   E   0.82584  0.25000  0.32221
E85   E   0.82584  0.25000  0.82221
E86   E   0.82584  0.31638  0.57221
E87   E   0.82584  0.68362  0.92779
E88   E   0.82584  0.75000  0.17779
E89   E   0.82584  0.75000  0.67779
E90   E   0.82584  0.81638  0.42779
E91   E   0.87973  0.12973  0.62500
E92   E   0.87973  0.37027  0.12500
E93   E   0.87973  0.62973  0.37500
E94   E   0.87973  0.87027  0.87500
E95   E   0.93362  0.00000  0.75000
E96   E   0.93362  0.07584  0.17779
E97   E   0.93362  0.42416  0.67779
E98   E   0.93362  0.50000  0.25000
E99   E   0.93362  0.57584  0.82221
E100  E   0.93362  0.92416  0.32221
loop_
