data_wik_I41/acd:2  hall_number: 429, V_con: 6
_audit_creation_date              2025-03-05
_audit_creation_method            'MOFbuilder_1.0'
_symmetry_space_group_name_H-M    'P1'
_symmetry_Int_Tables_number       1
_symmetry_cell_setting            triclinic
loop_
_symmetry_equiv_pos_as_xyz
  x,y,z
_cell_length_a                    62.1741
_cell_length_b                    62.1741
_cell_length_c                    10.0
_cell_angle_alpha                 90.0
_cell_angle_beta                  90.0
_cell_angle_gamma                 90.0
loop_
_atom_site_label
_atom_site_type_symbol
_atom_site_fract_x
_atom_site_fract_y
_atom_site_fract_z
V1    V   0.06964  0.07259  0.46525
V2    V   0.06964  0.42741  0.96525
V3    V   0.06964  0.57259  0.53475
V4    V   0.06964  0.92741  0.03475
V5    V   0.17741  0.18036  0.78475
V6    V   0.17741  0.31964  0.28475
V7    V   0.17741  0.68036  0.21525
V8    V   0.17741  0.81964  0.71525
V9    V   0.32259  0.18036  0.21525
V10   V   0.32259  0.31964  0.71525
V11   V   0.32259  0.68036  0.78475
V12   V   0.32259  0.81964  0.28475
V13   V   0.43036  0.07259  0.53475
V14   V   0.43036  0.42741  0.03475
V15   V   0.43036  0.57259  0.46525
V16   V   0.43036  0.92741  0.96525
V17   V   0.56964  0.07259  0.03475
V18   V   0.56964  0.42741  0.53475
V19   V   0.56964  0.57259  0.96525
V20   V   0.56964  0.92741  0.46525
V21   V   0.67741  0.18036  0.71525
V22   V   0.67741  0.31964  0.21525
V23   V   0.67741  0.68036  0.28475
V24   V   0.67741  0.81964  0.78475
V25   V   0.82259  0.18036  0.28475
V26   V   0.82259  0.31964  0.78475
V27   V   0.82259  0.68036  0.71525
V28   V   0.82259  0.81964  0.21525
V29   V   0.93036  0.07259  0.96525
V30   V   0.93036  0.42741  0.46525
V31   V   0.93036  0.57259  0.03475
V32   V   0.93036  0.92741  0.53475
E1    E   0.00000  0.07259  0.21525
E2    E   0.00000  0.07259  0.71525
E3    E   0.00000  0.42741  0.21525
E4    E   0.00000  0.42741  0.71525
E5    E   0.00000  0.57259  0.28475
E6    E   0.00000  0.57259  0.78475
E7    E   0.00000  0.92741  0.28475
E8    E   0.00000  0.92741  0.78475
E9    E   0.06964  0.00000  0.25000
E10   E   0.06964  0.07259  0.96525
E11   E   0.06964  0.42741  0.46525
E12   E   0.06964  0.50000  0.75000
E13   E   0.06964  0.57259  0.03475
E14   E   0.06964  0.92741  0.53475
E15   E   0.12353  0.12647  0.62500
E16   E   0.12353  0.37353  0.12500
E17   E   0.12353  0.62647  0.37500
E18   E   0.12353  0.87353  0.87500
E19   E   0.12353  0.12647  0.62500
E20   E   0.12353  0.37353  0.12500
E21   E   0.12353  0.62647  0.37500
E22   E   0.12353  0.87353  0.87500
E23   E   0.17741  0.18036  0.28475
E24   E   0.17741  0.25000  0.03475
E25   E   0.17741  0.25000  0.53475
E26   E   0.17741  0.31964  0.78475
E27   E   0.17741  0.68036  0.71525
E28   E   0.17741  0.75000  0.46525
E29   E   0.17741  0.75000  0.96525
E30   E   0.17741  0.81964  0.21525
E31   E   0.25000  0.18036  0.00000
E32   E   0.25000  0.31964  0.50000
E33   E   0.25000  0.68036  0.00000
E34   E   0.25000  0.81964  0.50000
E35   E   0.32259  0.18036  0.71525
E36   E   0.32259  0.25000  0.46525
E37   E   0.32259  0.25000  0.96525
E38   E   0.32259  0.31964  0.21525
E39   E   0.32259  0.68036  0.28475
E40   E   0.32259  0.75000  0.03475
E41   E   0.32259  0.75000  0.53475
E42   E   0.32259  0.81964  0.78475
E43   E   0.37647  0.12647  0.37500
E44   E   0.37647  0.37353  0.87500
E45   E   0.37647  0.62647  0.62500
E46   E   0.37647  0.87353  0.12500
E47   E   0.37647  0.12647  0.37500
E48   E   0.37647  0.37353  0.87500
E49   E   0.37647  0.62647  0.62500
E50   E   0.37647  0.87353  0.12500
E51   E   0.43036  0.00000  0.75000
E52   E   0.43036  0.07259  0.03475
E53   E   0.43036  0.42741  0.53475
E54   E   0.43036  0.50000  0.25000
E55   E   0.43036  0.57259  0.96525
E56   E   0.43036  0.92741  0.46525
E57   E   0.50000  0.07259  0.28475
E58   E   0.50000  0.07259  0.78475
E59   E   0.50000  0.42741  0.28475
E60   E   0.50000  0.42741  0.78475
E61   E   0.50000  0.57259  0.21525
E62   E   0.50000  0.57259  0.71525
E63   E   0.50000  0.92741  0.21525
E64   E   0.50000  0.92741  0.71525
E65   E   0.56964  0.00000  0.25000
E66   E   0.56964  0.07259  0.53475
E67   E   0.56964  0.42741  0.03475
E68   E   0.56964  0.50000  0.75000
E69   E   0.56964  0.57259  0.46525
E70   E   0.56964  0.92741  0.96525
E71   E   0.62353  0.12647  0.87500
E72   E   0.62353  0.37353  0.37500
E73   E   0.62353  0.62647  0.12500
E74   E   0.62353  0.87353  0.62500
E75   E   0.62353  0.12647  0.87500
E76   E   0.62353  0.37353  0.37500
E77   E   0.62353  0.62647  0.12500
E78   E   0.62353  0.87353  0.62500
E79   E   0.67741  0.18036  0.21525
E80   E   0.67741  0.25000  0.46525
E81   E   0.67741  0.25000  0.96525
E82   E   0.67741  0.31964  0.71525
E83   E   0.67741  0.68036  0.78475
E84   E   0.67741  0.75000  0.03475
E85   E   0.67741  0.75000  0.53475
E86   E   0.67741  0.81964  0.28475
E87   E   0.75000  0.18036  0.50000
E88   E   0.75000  0.31964  0.00000
E89   E   0.75000  0.68036  0.50000
E90   E   0.75000  0.81964  0.00000
E91   E   0.82259  0.18036  0.78475
E92   E   0.82259  0.25000  0.03475
E93   E   0.82259  0.25000  0.53475
E94   E   0.82259  0.31964  0.28475
E95   E   0.82259  0.68036  0.21525
E96   E   0.82259  0.75000  0.46525
E97   E   0.82259  0.75000  0.96525
E98   E   0.82259  0.81964  0.71525
E99   E   0.87647  0.12647  0.12500
E100  E   0.87647  0.37353  0.62500
E101  E   0.87647  0.62647  0.87500
E102  E   0.87647  0.87353  0.37500
E103  E   0.87647  0.12647  0.12500
E104  E   0.87647  0.37353  0.62500
E105  E   0.87647  0.62647  0.87500
E106  E   0.87647  0.87353  0.37500
E107  E   0.93036  0.00000  0.75000
E108  E   0.93036  0.07259  0.46525
E109  E   0.93036  0.42741  0.96525
E110  E   0.93036  0.50000  0.25000
E111  E   0.93036  0.57259  0.53475
E112  E   0.93036  0.92741  0.03475
loop_
