data_wil_I41/acd:2  hall_number: 429, V_con: 6
_audit_creation_date              2025-03-05
_audit_creation_method            'MOFbuilder_1.0'
_symmetry_space_group_name_H-M    'P1'
_symmetry_Int_Tables_number       1
_symmetry_cell_setting            triclinic
loop_
_symmetry_equiv_pos_as_xyz
  x,y,z
_cell_length_a                    43.5491
_cell_length_b                    43.5491
_cell_length_c                    17.6405
_cell_angle_alpha                 90.0
_cell_angle_beta                  90.0
_cell_angle_gamma                 90.0
loop_
_atom_site_label
_atom_site_type_symbol
_atom_site_fract_x
_atom_site_fract_y
_atom_site_fract_z
V1    V   0.05410  0.09755  0.89947
V2    V   0.05410  0.40245  0.39947
V3    V   0.05410  0.59755  0.10053
V4    V   0.05410  0.90245  0.60053
V5    V   0.15245  0.19590  0.35053
V6    V   0.15245  0.30410  0.85053
V7    V   0.15245  0.69590  0.64947
V8    V   0.15245  0.80410  0.14947
V9    V   0.34755  0.19590  0.64947
V10   V   0.34755  0.30410  0.14947
V11   V   0.34755  0.69590  0.35053
V12   V   0.34755  0.80410  0.85053
V13   V   0.44590  0.09755  0.10053
V14   V   0.44590  0.40245  0.60053
V15   V   0.44590  0.59755  0.89947
V16   V   0.44590  0.90245  0.39947
V17   V   0.55410  0.09755  0.60053
V18   V   0.55410  0.40245  0.10053
V19   V   0.55410  0.59755  0.39947
V20   V   0.55410  0.90245  0.89947
V21   V   0.65245  0.19590  0.14947
V22   V   0.65245  0.30410  0.64947
V23   V   0.65245  0.69590  0.85053
V24   V   0.65245  0.80410  0.35053
V25   V   0.84755  0.19590  0.85053
V26   V   0.84755  0.30410  0.35053
V27   V   0.84755  0.69590  0.14947
V28   V   0.84755  0.80410  0.64947
V29   V   0.94590  0.09755  0.39947
V30   V   0.94590  0.40245  0.89947
V31   V   0.94590  0.59755  0.60053
V32   V   0.94590  0.90245  0.10053
E1    E   0.00000  0.09755  0.14947
E2    E   0.00000  0.09755  0.64947
E3    E   0.00000  0.40245  0.14947
E4    E   0.00000  0.40245  0.64947
E5    E   0.00000  0.59755  0.35053
E6    E   0.00000  0.59755  0.85053
E7    E   0.00000  0.90245  0.35053
E8    E   0.00000  0.90245  0.85053
E9    E   0.04917  0.14673  0.37500
E10   E   0.04917  0.35327  0.87500
E11   E   0.04917  0.64673  0.62500
E12   E   0.04917  0.85327  0.12500
E13   E   0.05410  0.00000  0.75000
E14   E   0.05410  0.50000  0.25000
E15   E   0.10327  0.14673  0.12500
E16   E   0.10327  0.20083  0.87500
E17   E   0.10327  0.29917  0.37500
E18   E   0.10327  0.35327  0.62500
E19   E   0.10327  0.64673  0.87500
E20   E   0.10327  0.70083  0.12500
E21   E   0.10327  0.79917  0.62500
E22   E   0.10327  0.85327  0.37500
E23   E   0.15245  0.25000  0.10053
E24   E   0.15245  0.25000  0.60053
E25   E   0.15245  0.75000  0.39947
E26   E   0.15245  0.75000  0.89947
E27   E   0.25000  0.19590  0.50000
E28   E   0.25000  0.30410  0.00000
E29   E   0.25000  0.69590  0.50000
E30   E   0.25000  0.80410  0.00000
E31   E   0.34755  0.25000  0.39947
E32   E   0.34755  0.25000  0.89947
E33   E   0.34755  0.75000  0.10053
E34   E   0.34755  0.75000  0.60053
E35   E   0.39673  0.14673  0.87500
E36   E   0.39673  0.20083  0.12500
E37   E   0.39673  0.29917  0.62500
E38   E   0.39673  0.35327  0.37500
E39   E   0.39673  0.64673  0.12500
E40   E   0.39673  0.70083  0.87500
E41   E   0.39673  0.79917  0.37500
E42   E   0.39673  0.85327  0.62500
E43   E   0.44590  0.00000  0.25000
E44   E   0.44590  0.50000  0.75000
E45   E   0.45083  0.14673  0.62500
E46   E   0.45083  0.35327  0.12500
E47   E   0.45083  0.64673  0.37500
E48   E   0.45083  0.85327  0.87500
E49   E   0.50000  0.09755  0.35053
E50   E   0.50000  0.09755  0.85053
E51   E   0.50000  0.40245  0.35053
E52   E   0.50000  0.40245  0.85053
E53   E   0.50000  0.59755  0.14947
E54   E   0.50000  0.59755  0.64947
E55   E   0.50000  0.90245  0.14947
E56   E   0.50000  0.90245  0.64947
E57   E   0.54917  0.14673  0.12500
E58   E   0.54917  0.35327  0.62500
E59   E   0.54917  0.64673  0.87500
E60   E   0.54917  0.85327  0.37500
E61   E   0.55410  0.00000  0.75000
E62   E   0.55410  0.50000  0.25000
E63   E   0.60327  0.14673  0.37500
E64   E   0.60327  0.20083  0.62500
E65   E   0.60327  0.29917  0.12500
E66   E   0.60327  0.35327  0.87500
E67   E   0.60327  0.64673  0.62500
E68   E   0.60327  0.70083  0.37500
E69   E   0.60327  0.79917  0.87500
E70   E   0.60327  0.85327  0.12500
E71   E   0.65245  0.25000  0.39947
E72   E   0.65245  0.25000  0.89947
E73   E   0.65245  0.75000  0.10053
E74   E   0.65245  0.75000  0.60053
E75   E   0.75000  0.19590  0.00000
E76   E   0.75000  0.30410  0.50000
E77   E   0.75000  0.69590  0.00000
E78   E   0.75000  0.80410  0.50000
E79   E   0.84755  0.25000  0.10053
E80   E   0.84755  0.25000  0.60053
E81   E   0.84755  0.75000  0.39947
E82   E   0.84755  0.75000  0.89947
E83   E   0.89673  0.14673  0.62500
E84   E   0.89673  0.20083  0.37500
E85   E   0.89673  0.29917  0.87500
E86   E   0.89673  0.35327  0.12500
E87   E   0.89673  0.64673  0.37500
E88   E   0.89673  0.70083  0.62500
E89   E   0.89673  0.79917  0.12500
E90   E   0.89673  0.85327  0.87500
E91   E   0.94590  0.00000  0.25000
E92   E   0.94590  0.50000  0.75000
E93   E   0.95083  0.14673  0.87500
E94   E   0.95083  0.35327  0.37500
E95   E   0.95083  0.64673  0.12500
E96   E   0.95083  0.85327  0.62500
loop_
