data_wiq_I41/acd:2  hall_number: 429, V_con: 6
_audit_creation_date              2025-03-05
_audit_creation_method            'MOFbuilder_1.0'
_symmetry_space_group_name_H-M    'P1'
_symmetry_Int_Tables_number       1
_symmetry_cell_setting            triclinic
loop_
_symmetry_equiv_pos_as_xyz
  x,y,z
_cell_length_a                    31.779000000000003
_cell_length_b                    31.779000000000003
_cell_length_c                    33.937599999999996
_cell_angle_alpha                 90.0
_cell_angle_beta                  90.0
_cell_angle_gamma                 90.0
loop_
_atom_site_label
_atom_site_type_symbol
_atom_site_fract_x
_atom_site_fract_y
_atom_site_fract_z
V1    V   0.09424  0.12401  0.97918
V2    V   0.09424  0.37599  0.47918
V3    V   0.09424  0.62401  0.02082
V4    V   0.09424  0.87599  0.52082
V5    V   0.12599  0.15576  0.27082
V6    V   0.12599  0.34424  0.77082
V7    V   0.12599  0.65576  0.72918
V8    V   0.12599  0.84424  0.22918
V9    V   0.37401  0.15576  0.72918
V10   V   0.37401  0.34424  0.22918
V11   V   0.37401  0.65576  0.27082
V12   V   0.37401  0.84424  0.77082
V13   V   0.40576  0.12401  0.02082
V14   V   0.40576  0.37599  0.52082
V15   V   0.40576  0.62401  0.97918
V16   V   0.40576  0.87599  0.47918
V17   V   0.59424  0.12401  0.52082
V18   V   0.59424  0.37599  0.02082
V19   V   0.59424  0.62401  0.47918
V20   V   0.59424  0.87599  0.97918
V21   V   0.62599  0.15576  0.22918
V22   V   0.62599  0.34424  0.72918
V23   V   0.62599  0.65576  0.77082
V24   V   0.62599  0.84424  0.27082
V25   V   0.87401  0.15576  0.77082
V26   V   0.87401  0.34424  0.27082
V27   V   0.87401  0.65576  0.22918
V28   V   0.87401  0.84424  0.72918
V29   V   0.90576  0.12401  0.47918
V30   V   0.90576  0.37599  0.97918
V31   V   0.90576  0.62401  0.52082
V32   V   0.90576  0.87599  0.02082
E1    E   0.00000  0.00000  0.00000
E2    E   0.00000  0.00000  0.50000
E3    E   0.00000  0.25000  0.27082
E4    E   0.00000  0.25000  0.47918
E5    E   0.00000  0.25000  0.77082
E6    E   0.00000  0.25000  0.97918
E7    E   0.00000  0.50000  0.00000
E8    E   0.00000  0.50000  0.50000
E9    E   0.00000  0.75000  0.02082
E10   E   0.00000  0.75000  0.22918
E11   E   0.00000  0.75000  0.52082
E12   E   0.00000  0.75000  0.72918
E13   E   0.01587  0.13988  0.37500
E14   E   0.01587  0.36012  0.87500
E15   E   0.01587  0.63988  0.62500
E16   E   0.01587  0.86012  0.12500
E17   E   0.11012  0.13988  0.12500
E18   E   0.11012  0.23413  0.87500
E19   E   0.11012  0.26587  0.37500
E20   E   0.11012  0.36012  0.62500
E21   E   0.11012  0.63988  0.87500
E22   E   0.11012  0.73413  0.12500
E23   E   0.11012  0.76587  0.62500
E24   E   0.11012  0.86012  0.37500
E25   E   0.12599  0.00000  0.25000
E26   E   0.12599  0.50000  0.75000
E27   E   0.25000  0.12401  0.00000
E28   E   0.25000  0.25000  0.25000
E29   E   0.25000  0.25000  0.75000
E30   E   0.25000  0.37599  0.50000
E31   E   0.25000  0.62401  0.00000
E32   E   0.25000  0.75000  0.25000
E33   E   0.25000  0.75000  0.75000
E34   E   0.25000  0.87599  0.50000
E35   E   0.37401  0.00000  0.75000
E36   E   0.37401  0.50000  0.25000
E37   E   0.38988  0.13988  0.87500
E38   E   0.38988  0.23413  0.12500
E39   E   0.38988  0.26587  0.62500
E40   E   0.38988  0.36012  0.37500
E41   E   0.38988  0.63988  0.12500
E42   E   0.38988  0.73413  0.87500
E43   E   0.38988  0.76587  0.37500
E44   E   0.38988  0.86012  0.62500
E45   E   0.48413  0.13988  0.62500
E46   E   0.48413  0.36012  0.12500
E47   E   0.48413  0.63988  0.37500
E48   E   0.48413  0.86012  0.87500
E49   E   0.50000  0.00000  0.00000
E50   E   0.50000  0.00000  0.50000
E51   E   0.50000  0.25000  0.02082
E52   E   0.50000  0.25000  0.22918
E53   E   0.50000  0.25000  0.52082
E54   E   0.50000  0.25000  0.72918
E55   E   0.50000  0.50000  0.00000
E56   E   0.50000  0.50000  0.50000
E57   E   0.50000  0.75000  0.27082
E58   E   0.50000  0.75000  0.47918
E59   E   0.50000  0.75000  0.77082
E60   E   0.50000  0.75000  0.97918
E61   E   0.51587  0.13988  0.12500
E62   E   0.51587  0.36012  0.62500
E63   E   0.51587  0.63988  0.87500
E64   E   0.51587  0.86012  0.37500
E65   E   0.61012  0.13988  0.37500
E66   E   0.61012  0.23413  0.62500
E67   E   0.61012  0.26587  0.12500
E68   E   0.61012  0.36012  0.87500
E69   E   0.61012  0.63988  0.62500
E70   E   0.61012  0.73413  0.37500
E71   E   0.61012  0.76587  0.87500
E72   E   0.61012  0.86012  0.12500
E73   E   0.62599  0.00000  0.25000
E74   E   0.62599  0.50000  0.75000
E75   E   0.75000  0.12401  0.50000
E76   E   0.75000  0.25000  0.25000
E77   E   0.75000  0.25000  0.75000
E78   E   0.75000  0.37599  0.00000
E79   E   0.75000  0.62401  0.50000
E80   E   0.75000  0.75000  0.25000
E81   E   0.75000  0.75000  0.75000
E82   E   0.75000  0.87599  0.00000
E83   E   0.87401  0.00000  0.75000
E84   E   0.87401  0.50000  0.25000
E85   E   0.88988  0.13988  0.62500
E86   E   0.88988  0.23413  0.37500
E87   E   0.88988  0.26587  0.87500
E88   E   0.88988  0.36012  0.12500
E89   E   0.88988  0.63988  0.37500
E90   E   0.88988  0.73413  0.62500
E91   E   0.88988  0.76587  0.12500
E92   E   0.88988  0.86012  0.87500
E93   E   0.98413  0.13988  0.87500
E94   E   0.98413  0.36012  0.37500
E95   E   0.98413  0.63988  0.12500
E96   E   0.98413  0.86012  0.62500
loop_
