data_wit_I41/acd:2  hall_number: 429, V_con: 6
_audit_creation_date              2025-03-05
_audit_creation_method            'MOFbuilder_1.0'
_symmetry_space_group_name_H-M    'P1'
_symmetry_Int_Tables_number       1
_symmetry_cell_setting            triclinic
loop_
_symmetry_equiv_pos_as_xyz
  x,y,z
_cell_length_a                    19.854300000000002
_cell_length_b                    19.854300000000002
_cell_length_c                    73.0599
_cell_angle_alpha                 90.0
_cell_angle_beta                  90.0
_cell_angle_gamma                 90.0
loop_
_atom_site_label
_atom_site_type_symbol
_atom_site_fract_x
_atom_site_fract_y
_atom_site_fract_z
V1    V   0.12316  0.03034  0.55912
V2    V   0.12316  0.46966  0.05912
V3    V   0.12316  0.53034  0.44088
V4    V   0.12316  0.96966  0.94088
V5    V   0.21966  0.12684  0.69088
V6    V   0.21966  0.37316  0.19088
V7    V   0.21966  0.62684  0.30912
V8    V   0.21966  0.87316  0.80912
V9    V   0.28034  0.12684  0.30912
V10   V   0.28034  0.37316  0.80912
V11   V   0.28034  0.62684  0.69088
V12   V   0.28034  0.87316  0.19088
V13   V   0.37684  0.03034  0.44088
V14   V   0.37684  0.46966  0.94088
V15   V   0.37684  0.53034  0.55912
V16   V   0.37684  0.96966  0.05912
V17   V   0.62316  0.03034  0.94088
V18   V   0.62316  0.46966  0.44088
V19   V   0.62316  0.53034  0.05912
V20   V   0.62316  0.96966  0.55912
V21   V   0.71966  0.12684  0.80912
V22   V   0.71966  0.37316  0.30912
V23   V   0.71966  0.62684  0.19088
V24   V   0.71966  0.87316  0.69088
V25   V   0.78034  0.12684  0.19088
V26   V   0.78034  0.37316  0.69088
V27   V   0.78034  0.62684  0.80912
V28   V   0.78034  0.87316  0.30912
V29   V   0.87684  0.03034  0.05912
V30   V   0.87684  0.46966  0.55912
V31   V   0.87684  0.53034  0.94088
V32   V   0.87684  0.96966  0.44088
E1    E   0.00000  0.00000  0.00000
E2    E   0.00000  0.00000  0.50000
E3    E   0.00000  0.25000  0.05912
E4    E   0.00000  0.25000  0.19088
E5    E   0.00000  0.25000  0.55912
E6    E   0.00000  0.25000  0.69088
E7    E   0.00000  0.50000  0.00000
E8    E   0.00000  0.50000  0.50000
E9    E   0.00000  0.75000  0.30912
E10   E   0.00000  0.75000  0.44088
E11   E   0.00000  0.75000  0.80912
E12   E   0.00000  0.75000  0.94088
E13   E   0.12684  0.00000  0.05912
E14   E   0.12684  0.00000  0.44088
E15   E   0.12684  0.50000  0.55912
E16   E   0.12684  0.50000  0.94088
E17   E   0.17141  0.07859  0.62500
E18   E   0.17141  0.07859  0.62500
E19   E   0.17141  0.42141  0.12500
E20   E   0.17141  0.57859  0.37500
E21   E   0.17141  0.92141  0.87500
E22   E   0.21966  0.00000  0.75000
E23   E   0.21966  0.50000  0.25000
E24   E   0.25000  0.03034  0.50000
E25   E   0.25000  0.12316  0.19088
E26   E   0.25000  0.12316  0.80912
E27   E   0.25000  0.25000  0.25000
E28   E   0.25000  0.25000  0.75000
E29   E   0.25000  0.37684  0.30912
E30   E   0.25000  0.37684  0.69088
E31   E   0.25000  0.46966  0.00000
E32   E   0.25000  0.53034  0.50000
E33   E   0.25000  0.62316  0.19088
E34   E   0.25000  0.62316  0.80912
E35   E   0.25000  0.75000  0.25000
E36   E   0.25000  0.75000  0.75000
E37   E   0.25000  0.87684  0.30912
E38   E   0.25000  0.87684  0.69088
E39   E   0.25000  0.96966  0.00000
E40   E   0.28034  0.00000  0.25000
E41   E   0.28034  0.50000  0.75000
E42   E   0.32859  0.07859  0.37500
E43   E   0.32859  0.07859  0.37500
E44   E   0.32859  0.42141  0.87500
E45   E   0.32859  0.57859  0.62500
E46   E   0.32859  0.92141  0.12500
E47   E   0.37316  0.00000  0.55912
E48   E   0.37316  0.00000  0.94088
E49   E   0.37316  0.50000  0.05912
E50   E   0.37316  0.50000  0.44088
E51   E   0.50000  0.00000  0.00000
E52   E   0.50000  0.00000  0.50000
E53   E   0.50000  0.25000  0.30912
E54   E   0.50000  0.25000  0.44088
E55   E   0.50000  0.25000  0.80912
E56   E   0.50000  0.25000  0.94088
E57   E   0.50000  0.50000  0.00000
E58   E   0.50000  0.50000  0.50000
E59   E   0.50000  0.75000  0.05912
E60   E   0.50000  0.75000  0.19088
E61   E   0.50000  0.75000  0.55912
E62   E   0.50000  0.75000  0.69088
E63   E   0.62684  0.00000  0.05912
E64   E   0.62684  0.00000  0.44088
E65   E   0.62684  0.50000  0.55912
E66   E   0.62684  0.50000  0.94088
E67   E   0.67141  0.07859  0.87500
E68   E   0.67141  0.07859  0.87500
E69   E   0.67141  0.42141  0.37500
E70   E   0.67141  0.57859  0.12500
E71   E   0.67141  0.92141  0.62500
E72   E   0.71966  0.00000  0.75000
E73   E   0.71966  0.50000  0.25000
E74   E   0.75000  0.03034  0.00000
E75   E   0.75000  0.12316  0.30912
E76   E   0.75000  0.12316  0.69088
E77   E   0.75000  0.25000  0.25000
E78   E   0.75000  0.25000  0.75000
E79   E   0.75000  0.37684  0.19088
E80   E   0.75000  0.37684  0.80912
E81   E   0.75000  0.46966  0.50000
E82   E   0.75000  0.53034  0.00000
E83   E   0.75000  0.62316  0.30912
E84   E   0.75000  0.62316  0.69088
E85   E   0.75000  0.75000  0.25000
E86   E   0.75000  0.75000  0.75000
E87   E   0.75000  0.87684  0.19088
E88   E   0.75000  0.87684  0.80912
E89   E   0.75000  0.96966  0.50000
E90   E   0.78034  0.00000  0.25000
E91   E   0.78034  0.50000  0.75000
E92   E   0.82859  0.07859  0.12500
E93   E   0.82859  0.07859  0.12500
E94   E   0.82859  0.42141  0.62500
E95   E   0.82859  0.57859  0.87500
E96   E   0.82859  0.92141  0.37500
E97   E   0.87316  0.00000  0.55912
E98   E   0.87316  0.00000  0.94088
E99   E   0.87316  0.50000  0.05912
E100  E   0.87316  0.50000  0.44088
loop_
