data_wiu_I41/a:2  hall_number: 365, V_con: 6
_audit_creation_date              2025-03-05
_audit_creation_method            'MOFbuilder_1.0'
_symmetry_space_group_name_H-M    'P1'
_symmetry_Int_Tables_number       1
_symmetry_cell_setting            triclinic
loop_
_symmetry_equiv_pos_as_xyz
  x,y,z
_cell_length_a                    18.9277
_cell_length_b                    18.9277
_cell_length_c                    38.693200000000004
_cell_angle_alpha                 90.0
_cell_angle_beta                  90.0
_cell_angle_gamma                 90.0
loop_
_atom_site_label
_atom_site_type_symbol
_atom_site_fract_x
_atom_site_fract_y
_atom_site_fract_z
V1    V   0.16670  0.04508  0.82064
V2    V   0.16670  0.54508  0.17936
V3    V   0.20492  0.41670  0.42936
V4    V   0.20492  0.91670  0.57064
V5    V   0.29508  0.08330  0.07064
V6    V   0.29508  0.58330  0.92936
V7    V   0.33330  0.45492  0.67936
V8    V   0.33330  0.95492  0.32064
V9    V   0.66670  0.04508  0.67936
V10   V   0.66670  0.54508  0.32064
V11   V   0.70492  0.41670  0.07064
V12   V   0.70492  0.91670  0.92936
V13   V   0.79508  0.08330  0.42936
V14   V   0.79508  0.58330  0.57064
V15   V   0.83330  0.45492  0.82064
V16   V   0.83330  0.95492  0.17936
E1    E   0.00000  0.00000  0.50000
E2    E   0.00000  0.25000  0.42936
E3    E   0.00000  0.25000  0.82064
E4    E   0.00000  0.50000  0.50000
E5    E   0.00000  0.75000  0.17936
E6    E   0.00000  0.75000  0.57064
E7    E   0.06419  0.01911  0.12500
E8    E   0.06419  0.51911  0.87500
E9    E   0.18581  0.48089  0.30436
E10   E   0.18581  0.98089  0.69564
E11   E   0.23089  0.06419  0.94564
E12   E   0.23089  0.31419  0.12500
E13   E   0.23089  0.56419  0.05436
E14   E   0.23089  0.81419  0.87500
E15   E   0.25000  0.25000  0.75000
E16   E   0.25000  0.75000  0.25000
E17   E   0.26911  0.18581  0.37500
E18   E   0.26911  0.43581  0.55436
E19   E   0.26911  0.68581  0.62500
E20   E   0.26911  0.93581  0.44564
E21   E   0.31419  0.01911  0.19564
E22   E   0.31419  0.51911  0.80436
E23   E   0.43581  0.48089  0.37500
E24   E   0.43581  0.98089  0.62500
E25   E   0.50000  0.00000  0.00000
E26   E   0.50000  0.25000  0.07064
E27   E   0.50000  0.25000  0.67936
E28   E   0.50000  0.50000  0.00000
E29   E   0.50000  0.75000  0.32064
E30   E   0.50000  0.75000  0.92936
E31   E   0.56419  0.01911  0.37500
E32   E   0.56419  0.51911  0.62500
E33   E   0.68581  0.48089  0.19564
E34   E   0.68581  0.98089  0.80436
E35   E   0.73089  0.06419  0.55436
E36   E   0.73089  0.31419  0.37500
E37   E   0.73089  0.56419  0.44564
E38   E   0.73089  0.81419  0.62500
E39   E   0.75000  0.25000  0.75000
E40   E   0.75000  0.75000  0.25000
E41   E   0.76911  0.18581  0.12500
E42   E   0.76911  0.43581  0.94564
E43   E   0.76911  0.68581  0.87500
E44   E   0.76911  0.93581  0.05436
E45   E   0.81419  0.01911  0.30436
E46   E   0.81419  0.51911  0.69564
E47   E   0.93581  0.48089  0.12500
E48   E   0.93581  0.98089  0.87500
loop_
