data_wiw_R-3c:H  hall_number: 167, V_con: 3
_audit_creation_date              2025-03-05
_audit_creation_method            'MOFbuilder_1.0'
_symmetry_space_group_name_H-M    'P1'
_symmetry_Int_Tables_number       1
_symmetry_cell_setting            triclinic
loop_
_symmetry_equiv_pos_as_xyz
  x,y,z
_cell_length_a                    63.8875
_cell_length_b                    63.8875
_cell_length_c                    21.566900000000004
_cell_angle_alpha                 90.0
_cell_angle_beta                  90.0
_cell_angle_gamma                 120.0
loop_
_atom_site_label
_atom_site_type_symbol
_atom_site_fract_x
_atom_site_fract_y
_atom_site_fract_z
V1    V   0.30587  0.07903  0.13754
V2    V   0.30587  0.42097  0.63754
V3    V   0.80587  0.57903  0.36246
V4    V   0.80587  0.92097  0.86246
E1    E   0.26636  0.00000  0.25000
E2    E   0.26636  0.50000  0.75000
E3    E   0.33333  0.09276  0.91667
E4    E   0.33333  0.16667  0.16667
E5    E   0.33333  0.33333  0.66667
E6    E   0.33333  0.40724  0.41667
E7    E   0.76636  0.00000  0.75000
E8    E   0.76636  0.50000  0.25000
E9    E   0.83333  0.59276  0.58333
E10   E   0.83333  0.66667  0.33333
E11   E   0.83333  0.83333  0.83333
E12   E   0.83333  0.90724  0.08333
loop_
