data_wix_P6122  hall_number: 472, V_con: 3
_audit_creation_date              2025-03-05
_audit_creation_method            'MOFbuilder_1.0'
_symmetry_space_group_name_H-M    'P1'
_symmetry_Int_Tables_number       1
_symmetry_cell_setting            triclinic
loop_
_symmetry_equiv_pos_as_xyz
  x,y,z
_cell_length_a                    39.6381
_cell_length_b                    39.6381
_cell_length_c                    20.3055
_cell_angle_alpha                 90.0
_cell_angle_beta                  90.0
_cell_angle_gamma                 120.0
loop_
_atom_site_label
_atom_site_type_symbol
_atom_site_fract_x
_atom_site_fract_y
_atom_site_fract_z
V1    V   0.14337  0.50301  0.37679
V2    V   0.14337  0.64036  0.78988
V3    V   0.35964  0.50301  0.12321
V4    V   0.35964  0.85663  0.04346
V5    V   0.49699  0.64036  0.71012
V6    V   0.49699  0.85663  0.45654
V7    V   0.50301  0.14337  0.95654
V8    V   0.50301  0.35964  0.21012
V9    V   0.64036  0.14337  0.54346
V10   V   0.64036  0.49699  0.62321
V11   V   0.85663  0.35964  0.28988
V12   V   0.85663  0.49699  0.87679
E1    E   0.00000  0.43132  0.33333
E2    E   0.00000  0.43132  0.33334
E3    E   0.00000  0.56868  0.83333
E4    E   0.00000  0.56868  0.83334
E5    E   0.14336  0.57168  0.58333
E6    E   0.14336  0.57168  0.58334
E7    E   0.25150  0.50301  0.25000
E8    E   0.25150  0.74849  0.91667
E9    E   0.25151  0.50301  0.25000
E10   E   0.25151  0.74850  0.91667
E11   E   0.42832  0.57168  0.91667
E12   E   0.42832  0.85664  0.25000
E13   E   0.42832  0.57168  0.91666
E14   E   0.42832  0.85664  0.25000
E15   E   0.43132  0.00000  0.00000
E16   E   0.43132  0.00000  1.00000
E17   E   0.43132  0.43132  0.16666
E18   E   0.43132  0.43132  0.16667
E19   E   0.49699  0.74849  0.58333
E20   E   0.49699  0.74850  0.58333
E21   E   0.50301  0.25150  0.08333
E22   E   0.50301  0.25151  0.08333
E23   E   0.56868  0.00000  0.50000
E24   E   0.56868  0.00000  0.50000
E25   E   0.56868  0.56868  0.66666
E26   E   0.56868  0.56868  0.66667
E27   E   0.57168  0.14336  0.75000
E28   E   0.57168  0.14336  0.75000
E29   E   0.57168  0.42832  0.41666
E30   E   0.57168  0.42832  0.41667
E31   E   0.74849  0.25150  0.41667
E32   E   0.74849  0.49699  0.75000
E33   E   0.74850  0.25151  0.41667
E34   E   0.74850  0.49699  0.75000
E35   E   0.85664  0.42832  0.08334
E36   E   0.85664  0.42832  0.08333
loop_
