data_wjb_P63/mcm  hall_number: 487, V_con: 6
_audit_creation_date              2025-03-05
_audit_creation_method            'MOFbuilder_1.0'
_symmetry_space_group_name_H-M    'P1'
_symmetry_Int_Tables_number       1
_symmetry_cell_setting            triclinic
loop_
_symmetry_equiv_pos_as_xyz
  x,y,z
_cell_length_a                    34.6409
_cell_length_b                    34.6409
_cell_length_c                    36.330200000000005
_cell_angle_alpha                 90.0
_cell_angle_beta                  90.0
_cell_angle_gamma                 120.0
loop_
_atom_site_label
_atom_site_type_symbol
_atom_site_fract_x
_atom_site_fract_y
_atom_site_fract_z
V1    V   0.16667  0.50000  0.11237
V2    V   0.16667  0.50000  0.38763
V3    V   0.16667  0.66667  0.61237
V4    V   0.16667  0.66667  0.88763
V5    V   0.33333  0.50000  0.61237
V6    V   0.33333  0.50000  0.88763
V7    V   0.33333  0.83333  0.11237
V8    V   0.33333  0.83333  0.38763
V9    V   0.50000  0.16667  0.11237
V10   V   0.50000  0.16667  0.38763
V11   V   0.50000  0.33333  0.61237
V12   V   0.50000  0.33333  0.88763
V13   V   0.50000  0.66667  0.11237
V14   V   0.50000  0.66667  0.38763
V15   V   0.50000  0.83333  0.61237
V16   V   0.50000  0.83333  0.88763
V17   V   0.66667  0.16667  0.61237
V18   V   0.66667  0.16667  0.88763
V19   V   0.66667  0.50000  0.11237
V20   V   0.66667  0.50000  0.38763
V21   V   0.83333  0.33333  0.11237
V22   V   0.83333  0.33333  0.38763
V23   V   0.83333  0.50000  0.61237
V24   V   0.83333  0.50000  0.88763
E1    E   0.00000  0.41667  0.11237
E2    E   0.00000  0.41667  0.38763
E3    E   0.00000  0.58333  0.61237
E4    E   0.00000  0.58333  0.88763
E5    E   0.16667  0.50000  0.25000
E6    E   0.16667  0.58333  0.00000
E7    E   0.16667  0.58333  0.50000
E8    E   0.16667  0.58334  0.00000
E9    E   0.16667  0.58334  0.50000
E10   E   0.16667  0.66667  0.75000
E11   E   0.25000  0.50000  0.00000
E12   E   0.25000  0.50000  0.50000
E13   E   0.25000  0.58333  0.61237
E14   E   0.25000  0.58333  0.88763
E15   E   0.25000  0.66667  0.11237
E16   E   0.25000  0.66667  0.38763
E17   E   0.25000  0.75000  0.00000
E18   E   0.25000  0.75000  0.50000
E19   E   0.33333  0.50000  0.75000
E20   E   0.33333  0.58333  0.11237
E21   E   0.33333  0.58333  0.38763
E22   E   0.33333  0.75000  0.61237
E23   E   0.33333  0.75000  0.88763
E24   E   0.33333  0.83333  0.25000
E25   E   0.41666  0.58333  0.00000
E26   E   0.41666  0.58333  0.50000
E27   E   0.41666  0.83333  0.00000
E28   E   0.41666  0.83333  0.50000
E29   E   0.41667  0.00000  0.11237
E30   E   0.41667  0.00000  0.38763
E31   E   0.41667  0.41667  0.61237
E32   E   0.41667  0.41667  0.88763
E33   E   0.41667  0.58334  0.00000
E34   E   0.41667  0.58334  0.50000
E35   E   0.41667  0.66667  0.61237
E36   E   0.41667  0.66667  0.88763
E37   E   0.41667  0.75000  0.11237
E38   E   0.41667  0.75000  0.38763
E39   E   0.41667  0.83333  0.00000
E40   E   0.41667  0.83333  0.50000
E41   E   0.50000  0.16667  0.25000
E42   E   0.50000  0.25000  0.00000
E43   E   0.50000  0.25000  0.50000
E44   E   0.50000  0.33333  0.75000
E45   E   0.50000  0.66667  0.25000
E46   E   0.50000  0.75000  0.00000
E47   E   0.50000  0.75000  0.50000
E48   E   0.50000  0.83333  0.75000
E49   E   0.58333  0.00000  0.61237
E50   E   0.58333  0.00000  0.88763
E51   E   0.58333  0.16667  0.00000
E52   E   0.58333  0.16667  0.50000
E53   E   0.58333  0.25000  0.61237
E54   E   0.58333  0.25000  0.88763
E55   E   0.58333  0.33333  0.11237
E56   E   0.58333  0.33333  0.38763
E57   E   0.58333  0.41666  0.00000
E58   E   0.58333  0.41666  0.50000
E59   E   0.58333  0.58333  0.11237
E60   E   0.58333  0.58333  0.38763
E61   E   0.58334  0.16667  0.00000
E62   E   0.58334  0.16667  0.50000
E63   E   0.58334  0.41667  0.00000
E64   E   0.58334  0.41667  0.50000
E65   E   0.66667  0.16667  0.75000
E66   E   0.66667  0.25000  0.11237
E67   E   0.66667  0.25000  0.38763
E68   E   0.66667  0.41667  0.61237
E69   E   0.66667  0.41667  0.88763
E70   E   0.66667  0.50000  0.25000
E71   E   0.75000  0.25000  0.00000
E72   E   0.75000  0.25000  0.50000
E73   E   0.75000  0.33333  0.61237
E74   E   0.75000  0.33333  0.88763
E75   E   0.75000  0.41667  0.11237
E76   E   0.75000  0.41667  0.38763
E77   E   0.75000  0.50000  0.00000
E78   E   0.75000  0.50000  0.50000
E79   E   0.83333  0.33333  0.25000
E80   E   0.83333  0.41666  0.00000
E81   E   0.83333  0.41666  0.50000
E82   E   0.83333  0.41667  0.00000
E83   E   0.83333  0.41667  0.50000
E84   E   0.83333  0.50000  0.75000
loop_
