data_wjg_P6222  hall_number: 474, V_con: 4
_audit_creation_date              2025-03-05
_audit_creation_method            'MOFbuilder_1.0'
_symmetry_space_group_name_H-M    'P1'
_symmetry_Int_Tables_number       1
_symmetry_cell_setting            triclinic
loop_
_symmetry_equiv_pos_as_xyz
  x,y,z
_cell_length_a                    24.647000000000002
_cell_length_b                    24.647000000000002
_cell_length_c                    24.0269
_cell_angle_alpha                 90.0
_cell_angle_beta                  90.0
_cell_angle_gamma                 120.0
loop_
_atom_site_label
_atom_site_type_symbol
_atom_site_fract_x
_atom_site_fract_y
_atom_site_fract_z
V1    V   0.18604  0.41587  0.29312
V2    V   0.18604  0.77017  0.04021
V3    V   0.22983  0.41587  0.70688
V4    V   0.22983  0.81396  0.62645
V5    V   0.41587  0.18604  0.37355
V6    V   0.41587  0.22983  0.95979
V7    V   0.58413  0.77017  0.95979
V8    V   0.58413  0.81396  0.37355
V9    V   0.77017  0.18604  0.62645
V10   V   0.77017  0.58413  0.70688
V11   V   0.81396  0.22983  0.04021
V12   V   0.81396  0.58413  0.29312
E1    E   0.00000  0.30096  0.66666
E2    E   0.00000  0.30096  0.66667
E3    E   0.00000  0.32285  0.16666
E4    E   0.00000  0.32285  0.16667
E5    E   0.00000  0.67715  0.16666
E6    E   0.00000  0.67715  0.16667
E7    E   0.00000  0.69904  0.66666
E8    E   0.00000  0.69904  0.66667
E9    E   0.20793  0.41587  0.50000
E10   E   0.20793  0.79206  0.83333
E11   E   0.20794  0.41587  0.50000
E12   E   0.20794  0.79207  0.83333
E13   E   0.22982  0.61491  0.66667
E14   E   0.22982  0.61491  0.66666
E15   E   0.30096  0.00000  0.00000
E16   E   0.30096  0.00000  1.00000
E17   E   0.30096  0.30096  0.33333
E18   E   0.30096  0.30096  0.33334
E19   E   0.32285  0.00000  0.50000
E20   E   0.32285  0.00000  0.50000
E21   E   0.32285  0.32285  0.83333
E22   E   0.32285  0.32285  0.83334
E23   E   0.38509  0.61491  0.33333
E24   E   0.38509  0.77018  0.00000
E25   E   0.38509  0.61491  0.33334
E26   E   0.38509  0.77018  1.00000
E27   E   0.41587  0.20793  0.16667
E28   E   0.41587  0.20794  0.16667
E29   E   0.58413  0.79206  0.16667
E30   E   0.58413  0.79207  0.16667
E31   E   0.61491  0.22982  1.00000
E32   E   0.61491  0.38509  0.33334
E33   E   0.61491  0.22982  0.00000
E34   E   0.61491  0.38509  0.33333
E35   E   0.67715  0.00000  0.50000
E36   E   0.67715  0.00000  0.50000
E37   E   0.67715  0.67715  0.83333
E38   E   0.67715  0.67715  0.83334
E39   E   0.69904  0.00000  0.00000
E40   E   0.69904  0.00000  1.00000
E41   E   0.69904  0.69904  0.33333
E42   E   0.69904  0.69904  0.33334
E43   E   0.77018  0.38509  0.66666
E44   E   0.77018  0.38509  0.66667
E45   E   0.79206  0.20793  0.83333
E46   E   0.79206  0.58413  0.50000
E47   E   0.79207  0.20794  0.83333
E48   E   0.79207  0.58413  0.50000
loop_
