data_wjh_P6122  hall_number: 472, V_con: 4
_audit_creation_date              2025-03-05
_audit_creation_method            'MOFbuilder_1.0'
_symmetry_space_group_name_H-M    'P1'
_symmetry_Int_Tables_number       1
_symmetry_cell_setting            triclinic
loop_
_symmetry_equiv_pos_as_xyz
  x,y,z
_cell_length_a                    40.783199999999994
_cell_length_b                    40.783199999999994
_cell_length_c                    17.977899999999998
_cell_angle_alpha                 90.0
_cell_angle_beta                  90.0
_cell_angle_gamma                 120.0
loop_
_atom_site_label
_atom_site_type_symbol
_atom_site_fract_x
_atom_site_fract_y
_atom_site_fract_z
V1    V   0.14157  0.51706  0.33333
V2    V   0.14157  0.62451  0.83333
V3    V   0.37549  0.51706  0.16667
V4    V   0.37549  0.85843  0.00000
V5    V   0.48294  0.62451  0.66667
V6    V   0.48294  0.85843  0.50000
V7    V   0.51706  0.14157  0.00000
V8    V   0.51706  0.37549  0.16667
V9    V   0.62451  0.14157  0.50000
V10   V   0.62451  0.48294  0.66667
V11   V   0.85843  0.37549  0.33333
V12   V   0.85843  0.48294  0.83333
E1    E   0.00000  0.44628  0.33333
E2    E   0.00000  0.55372  0.83333
E3    E   0.14157  0.57078  0.08333
E4    E   0.14157  0.57078  0.58333
E5    E   0.14157  0.57079  0.08333
E6    E   0.14157  0.57079  0.58333
E7    E   0.25853  0.51706  0.25000
E8    E   0.25853  0.51706  0.25000
E9    E   0.25853  0.74147  0.91666
E10   E   0.25853  0.74147  0.91667
E11   E   0.42921  0.57078  0.41667
E12   E   0.42921  0.57078  0.91667
E13   E   0.42921  0.85843  0.25000
E14   E   0.42921  0.85843  0.75000
E15   E   0.42922  0.57079  0.41667
E16   E   0.42922  0.57079  0.91667
E17   E   0.42922  0.85843  0.25000
E18   E   0.42922  0.85843  0.75000
E19   E   0.44628  0.00000  0.00000
E20   E   0.44628  0.44628  0.16667
E21   E   0.48294  0.74147  0.58333
E22   E   0.48294  0.74147  0.58334
E23   E   0.51706  0.25853  0.08333
E24   E   0.51706  0.25853  0.08334
E25   E   0.55372  0.00000  0.50000
E26   E   0.55372  0.55372  0.66667
E27   E   0.57078  0.14157  0.25000
E28   E   0.57078  0.14157  0.75000
E29   E   0.57078  0.42921  0.41667
E30   E   0.57078  0.42921  0.91667
E31   E   0.57079  0.14157  0.25000
E32   E   0.57079  0.14157  0.75000
E33   E   0.57079  0.42922  0.41667
E34   E   0.57079  0.42922  0.91667
E35   E   0.74147  0.25853  0.41666
E36   E   0.74147  0.25853  0.41667
E37   E   0.74147  0.48294  0.75000
E38   E   0.74147  0.48294  0.75000
E39   E   0.85843  0.42921  0.08333
E40   E   0.85843  0.42921  0.58333
E41   E   0.85843  0.42922  0.08333
E42   E   0.85843  0.42922  0.58333
loop_
