data_wjn_P6222  hall_number: 474, V_con: 5
_audit_creation_date              2025-03-05
_audit_creation_method            'MOFbuilder_1.0'
_symmetry_space_group_name_H-M    'P1'
_symmetry_Int_Tables_number       1
_symmetry_cell_setting            triclinic
loop_
_symmetry_equiv_pos_as_xyz
  x,y,z
_cell_length_a                    19.3185
_cell_length_b                    19.3185
_cell_length_c                    51.213100000000004
_cell_angle_alpha                 90.0
_cell_angle_beta                  90.0
_cell_angle_gamma                 120.0
loop_
_atom_site_label
_atom_site_type_symbol
_atom_site_fract_x
_atom_site_fract_y
_atom_site_fract_z
V1    V   0.21132  0.42265  0.90237
V2    V   0.21132  0.78867  0.43096
V3    V   0.21133  0.42265  0.09763
V4    V   0.21133  0.78868  0.23570
V5    V   0.42265  0.21132  0.76430
V6    V   0.42265  0.21133  0.56904
V7    V   0.57735  0.78867  0.56904
V8    V   0.57735  0.78868  0.76430
V9    V   0.78867  0.21132  0.23570
V10   V   0.78867  0.57735  0.09763
V11   V   0.78868  0.21133  0.43096
V12   V   0.78868  0.57735  0.90237
E1    E   0.00000  0.31699  0.16666
E2    E   0.00000  0.31699  0.16667
E3    E   0.00000  0.50000  0.09763
E4    E   0.00000  0.50000  0.23570
E5    E   0.00000  0.50000  0.43096
E6    E   0.00000  0.50000  0.90237
E7    E   0.00000  0.68301  0.16666
E8    E   0.00000  0.68301  0.16667
E9    E   0.21132  0.42265  0.00000
E10   E   0.21132  0.78867  0.33333
E11   E   0.21133  0.42265  0.00000
E12   E   0.21133  0.60566  0.16667
E13   E   0.21133  0.60567  0.16666
E14   E   0.21133  0.78868  0.33333
E15   E   0.31699  0.00000  0.50000
E16   E   0.31699  0.00000  0.50000
E17   E   0.31699  0.31699  0.83333
E18   E   0.31699  0.31699  0.83334
E19   E   0.39433  0.60566  0.83333
E20   E   0.39433  0.78867  0.50000
E21   E   0.39434  0.60567  0.83334
E22   E   0.39434  0.78867  0.50000
E23   E   0.42265  0.21132  0.66667
E24   E   0.42265  0.21133  0.66667
E25   E   0.50000  0.00000  0.23570
E26   E   0.50000  0.00000  0.43096
E27   E   0.50000  0.00000  0.56904
E28   E   0.50000  0.00000  0.76430
E29   E   0.50000  0.50000  0.09763
E30   E   0.50000  0.50000  0.56904
E31   E   0.50000  0.50000  0.76430
E32   E   0.50000  0.50000  0.90237
E33   E   0.57735  0.78867  0.66667
E34   E   0.57735  0.78868  0.66667
E35   E   0.60566  0.21133  0.50000
E36   E   0.60566  0.39433  0.83334
E37   E   0.60567  0.21133  0.50000
E38   E   0.60567  0.39434  0.83333
E39   E   0.68301  0.00000  0.50000
E40   E   0.68301  0.00000  0.50000
E41   E   0.68301  0.68301  0.83333
E42   E   0.68301  0.68301  0.83334
E43   E   0.78867  0.21132  0.33333
E44   E   0.78867  0.39433  0.16666
E45   E   0.78867  0.39434  0.16667
E46   E   0.78867  0.57735  0.00000
E47   E   0.78868  0.21133  0.33333
E48   E   0.78868  0.57735  0.00000
loop_
