data_wjr_P6/mcc  hall_number: 486, V_con: 5
_audit_creation_date              2025-03-05
_audit_creation_method            'MOFbuilder_1.0'
_symmetry_space_group_name_H-M    'P1'
_symmetry_Int_Tables_number       1
_symmetry_cell_setting            triclinic
loop_
_symmetry_equiv_pos_as_xyz
  x,y,z
_cell_length_a                    33.4606
_cell_length_b                    33.4606
_cell_length_c                    34.142199999999995
_cell_angle_alpha                 90.0
_cell_angle_beta                  90.0
_cell_angle_gamma                 120.0
loop_
_atom_site_label
_atom_site_type_symbol
_atom_site_fract_x
_atom_site_fract_y
_atom_site_fract_z
V1    V   0.12201  0.45534  0.35355
V2    V   0.12201  0.45534  0.64645
V3    V   0.12201  0.66667  0.14645
V4    V   0.12201  0.66667  0.85355
V5    V   0.33333  0.45534  0.14645
V6    V   0.33333  0.45534  0.85355
V7    V   0.33333  0.87799  0.35355
V8    V   0.33333  0.87799  0.64645
V9    V   0.45534  0.12201  0.14645
V10   V   0.45534  0.12201  0.85355
V11   V   0.45534  0.33333  0.35355
V12   V   0.45534  0.33333  0.64645
V13   V   0.54466  0.66667  0.35355
V14   V   0.54466  0.66667  0.64645
V15   V   0.54466  0.87799  0.14645
V16   V   0.54466  0.87799  0.85355
V17   V   0.66667  0.12201  0.35355
V18   V   0.66667  0.12201  0.64645
V19   V   0.66667  0.54466  0.14645
V20   V   0.66667  0.54466  0.85355
V21   V   0.87799  0.33333  0.14645
V22   V   0.87799  0.33333  0.85355
V23   V   0.87799  0.54466  0.35355
V24   V   0.87799  0.54466  0.64645
E1    E   0.00000  0.39434  0.25000
E2    E   0.00000  0.39434  0.75000
E3    E   0.00000  0.50000  0.14645
E4    E   0.00000  0.50000  0.35355
E5    E   0.00000  0.50000  0.64645
E6    E   0.00000  0.50000  0.85355
E7    E   0.00000  0.60566  0.25000
E8    E   0.00000  0.60566  0.75000
E9    E   0.12201  0.45534  0.50000
E10   E   0.12201  0.56100  0.25000
E11   E   0.12201  0.56100  0.75000
E12   E   0.12201  0.56101  0.25000
E13   E   0.12201  0.56101  0.75000
E14   E   0.12201  0.66667  0.00000
E15   E   0.22767  0.45534  0.25000
E16   E   0.22767  0.45534  0.75000
E17   E   0.22767  0.77233  0.25000
E18   E   0.22767  0.77233  0.75000
E19   E   0.33333  0.45534  0.00000
E20   E   0.33333  0.87799  0.50000
E21   E   0.39434  0.00000  0.25000
E22   E   0.39434  0.00000  0.75000
E23   E   0.39434  0.39434  0.25000
E24   E   0.39434  0.39434  0.75000
E25   E   0.43899  0.56100  0.25000
E26   E   0.43899  0.56100  0.75000
E27   E   0.43899  0.87799  0.25000
E28   E   0.43899  0.87799  0.75000
E29   E   0.43900  0.56101  0.25000
E30   E   0.43900  0.56101  0.75000
E31   E   0.43900  0.87799  0.25000
E32   E   0.43900  0.87799  0.75000
E33   E   0.45534  0.12201  0.00000
E34   E   0.45534  0.22767  0.25000
E35   E   0.45534  0.22767  0.75000
E36   E   0.45534  0.33333  0.50000
E37   E   0.50000  0.00000  0.14645
E38   E   0.50000  0.00000  0.35355
E39   E   0.50000  0.00000  0.64645
E40   E   0.50000  0.00000  0.85355
E41   E   0.50000  0.50000  0.14645
E42   E   0.50000  0.50000  0.35355
E43   E   0.50000  0.50000  0.64645
E44   E   0.50000  0.50000  0.85355
E45   E   0.54466  0.66667  0.50000
E46   E   0.54466  0.77233  0.25000
E47   E   0.54466  0.77233  0.75000
E48   E   0.54466  0.87799  0.00000
E49   E   0.56100  0.12201  0.25000
E50   E   0.56100  0.12201  0.75000
E51   E   0.56100  0.43899  0.25000
E52   E   0.56100  0.43899  0.75000
E53   E   0.56101  0.12201  0.25000
E54   E   0.56101  0.12201  0.75000
E55   E   0.56101  0.43900  0.25000
E56   E   0.56101  0.43900  0.75000
E57   E   0.60566  0.00000  0.25000
E58   E   0.60566  0.00000  0.75000
E59   E   0.60566  0.60566  0.25000
E60   E   0.60566  0.60566  0.75000
E61   E   0.66667  0.12201  0.50000
E62   E   0.66667  0.54466  0.00000
E63   E   0.77233  0.22767  0.25000
E64   E   0.77233  0.22767  0.75000
E65   E   0.77233  0.54466  0.25000
E66   E   0.77233  0.54466  0.75000
E67   E   0.87799  0.33333  0.00000
E68   E   0.87799  0.43899  0.25000
E69   E   0.87799  0.43899  0.75000
E70   E   0.87799  0.43900  0.25000
E71   E   0.87799  0.43900  0.75000
E72   E   0.87799  0.54466  0.50000
loop_
