data_wjs_P6122  hall_number: 472, V_con: 5
_audit_creation_date              2025-03-05
_audit_creation_method            'MOFbuilder_1.0'
_symmetry_space_group_name_H-M    'P1'
_symmetry_Int_Tables_number       1
_symmetry_cell_setting            triclinic
loop_
_symmetry_equiv_pos_as_xyz
  x,y,z
_cell_length_a                    17.8379
_cell_length_b                    17.8379
_cell_length_c                    48.1268
_cell_angle_alpha                 90.0
_cell_angle_beta                  90.0
_cell_angle_gamma                 120.0
loop_
_atom_site_label
_atom_site_type_symbol
_atom_site_fract_x
_atom_site_fract_y
_atom_site_fract_z
V1    V   0.06603  0.36287  0.48357
V2    V   0.06603  0.70316  0.68310
V3    V   0.29684  0.36287  0.01643
V4    V   0.29684  0.93397  0.15024
V5    V   0.36287  0.06603  0.84976
V6    V   0.36287  0.29684  0.31690
V7    V   0.63713  0.70316  0.81690
V8    V   0.63713  0.93397  0.34976
V9    V   0.70316  0.06603  0.65024
V10   V   0.70316  0.63713  0.51643
V11   V   0.93397  0.29684  0.18310
V12   V   0.93397  0.63713  0.98357
E1    E   0.11541  0.32986  0.09977
E2    E   0.11541  0.78555  0.06690
E3    E   0.11541  0.50000  0.00000
E4    E   0.11541  0.61541  0.16667
E5    E   0.14842  0.29684  0.25000
E6    E   0.14842  0.29684  0.25000
E7    E   0.14842  0.85158  0.91666
E8    E   0.14842  0.85158  0.91667
E9    E   0.21445  0.32986  0.40023
E10   E   0.21445  0.88459  0.76643
E11   E   0.29684  0.14842  0.08333
E12   E   0.29684  0.14842  0.08334
E13   E   0.32986  0.11541  0.23357
E14   E   0.32986  0.21445  0.93310
E15   E   0.38459  0.50000  0.50000
E16   E   0.38459  0.88459  0.66667
E17   E   0.50000  0.11541  0.33333
E18   E   0.50000  0.38459  0.83333
E19   E   0.50000  0.61541  0.33333
E20   E   0.50000  0.88459  0.83333
E21   E   0.61541  0.11541  0.16667
E22   E   0.61541  0.50000  0.00000
E23   E   0.67014  0.78555  0.43310
E24   E   0.67014  0.88459  0.73357
E25   E   0.70316  0.85158  0.58333
E26   E   0.70316  0.85158  0.58334
E27   E   0.78555  0.11541  0.26643
E28   E   0.78555  0.67014  0.90023
E29   E   0.85158  0.14842  0.41666
E30   E   0.85158  0.14842  0.41667
E31   E   0.85158  0.70316  0.75000
E32   E   0.85158  0.70316  0.75000
E33   E   0.88459  0.21445  0.56690
E34   E   0.88459  0.38459  0.66667
E35   E   0.88459  0.50000  0.50000
E36   E   0.88459  0.67014  0.59977
loop_
