data_wjx_P6222  hall_number: 474, V_con: 5
_audit_creation_date              2025-03-05
_audit_creation_method            'MOFbuilder_1.0'
_symmetry_space_group_name_H-M    'P1'
_symmetry_Int_Tables_number       1
_symmetry_cell_setting            triclinic
loop_
_symmetry_equiv_pos_as_xyz
  x,y,z
_cell_length_a                    46.6738
_cell_length_b                    46.6738
_cell_length_c                    10.0
_cell_angle_alpha                 90.0
_cell_angle_beta                  90.0
_cell_angle_gamma                 120.0
loop_
_atom_site_label
_atom_site_type_symbol
_atom_site_fract_x
_atom_site_fract_y
_atom_site_fract_z
V1    V   0.12252  0.45515  0.09770
V2    V   0.12252  0.66737  0.23563
V3    V   0.33263  0.45515  0.90230
V4    V   0.33263  0.87748  0.43103
V5    V   0.45515  0.12252  0.56897
V6    V   0.45515  0.33263  0.76437
V7    V   0.54485  0.66737  0.76437
V8    V   0.54485  0.87748  0.56897
V9    V   0.66737  0.12252  0.43103
V10   V   0.66737  0.54485  0.90230
V11   V   0.87748  0.33263  0.23563
V12   V   0.87748  0.54485  0.09770
E1    E   0.00000  0.39390  0.16666
E2    E   0.00000  0.39390  0.16667
E3    E   0.00000  0.60610  0.16666
E4    E   0.00000  0.60610  0.16667
E5    E   0.12252  0.45515  0.59770
E6    E   0.12252  0.56126  0.16667
E7    E   0.12252  0.56126  0.16666
E8    E   0.12252  0.66737  0.73563
E9    E   0.22757  0.45515  0.00000
E10   E   0.22757  0.77242  0.33333
E11   E   0.22758  0.45515  0.00000
E12   E   0.22758  0.77243  0.33333
E13   E   0.33263  0.45515  0.40230
E14   E   0.33263  0.87748  0.93103
E15   E   0.39390  0.00000  0.50000
E16   E   0.39390  0.00000  0.50000
E17   E   0.39390  0.39390  0.83333
E18   E   0.39390  0.39390  0.83334
E19   E   0.43874  0.56126  0.83333
E20   E   0.43874  0.87748  0.50000
E21   E   0.43874  0.56126  0.83334
E22   E   0.43874  0.87748  0.50000
E23   E   0.45515  0.12252  0.06897
E24   E   0.45515  0.22757  0.66667
E25   E   0.45515  0.22758  0.66667
E26   E   0.45515  0.33263  0.26437
E27   E   0.54485  0.66737  0.26437
E28   E   0.54485  0.77242  0.66667
E29   E   0.54485  0.77243  0.66667
E30   E   0.54485  0.87748  0.06897
E31   E   0.56126  0.12252  0.50000
E32   E   0.56126  0.43874  0.83334
E33   E   0.56126  0.12252  0.50000
E34   E   0.56126  0.43874  0.83333
E35   E   0.60610  0.00000  0.50000
E36   E   0.60610  0.00000  0.50000
E37   E   0.60610  0.60610  0.83333
E38   E   0.60610  0.60610  0.83334
E39   E   0.66737  0.12252  0.93103
E40   E   0.66737  0.54485  0.40230
E41   E   0.77242  0.22757  0.33333
E42   E   0.77242  0.54485  0.00000
E43   E   0.77243  0.22758  0.33333
E44   E   0.77243  0.54485  0.00000
E45   E   0.87748  0.33263  0.73563
E46   E   0.87748  0.43874  0.16666
E47   E   0.87748  0.43874  0.16667
E48   E   0.87748  0.54485  0.59770
loop_
