data_wjy_P6122  hall_number: 472, V_con: 5
_audit_creation_date              2025-03-05
_audit_creation_method            'MOFbuilder_1.0'
_symmetry_space_group_name_H-M    'P1'
_symmetry_Int_Tables_number       1
_symmetry_cell_setting            triclinic
loop_
_symmetry_equiv_pos_as_xyz
  x,y,z
_cell_length_a                    46.5101
_cell_length_b                    46.5101
_cell_length_c                    10.0
_cell_angle_alpha                 90.0
_cell_angle_beta                  90.0
_cell_angle_gamma                 120.0
loop_
_atom_site_label
_atom_site_type_symbol
_atom_site_fract_x
_atom_site_fract_y
_atom_site_fract_z
V1    V   0.12214  0.45928  0.24409
V2    V   0.12214  0.66286  0.92257
V3    V   0.33714  0.45928  0.25591
V4    V   0.33714  0.87786  0.91076
V5    V   0.45928  0.12214  0.08924
V6    V   0.45928  0.33714  0.07743
V7    V   0.54072  0.66286  0.57743
V8    V   0.54072  0.87786  0.58924
V9    V   0.66286  0.12214  0.41076
V10   V   0.66286  0.54072  0.75591
V11   V   0.87786  0.33714  0.42257
V12   V   0.87786  0.54072  0.74409
E1    E   0.00000  0.39821  0.33333
E2    E   0.00000  0.60179  0.83333
E3    E   0.12214  0.45928  0.74409
E4    E   0.12214  0.56107  0.08333
E5    E   0.12214  0.56107  0.08333
E6    E   0.12214  0.66286  0.42257
E7    E   0.22964  0.45928  0.25000
E8    E   0.22964  0.45928  0.25000
E9    E   0.22964  0.77036  0.91666
E10   E   0.22964  0.77036  0.91667
E11   E   0.33714  0.45928  0.75591
E12   E   0.33714  0.87786  0.41076
E13   E   0.39821  0.00000  0.00000
E14   E   0.39821  0.39821  0.16667
E15   E   0.43893  0.56107  0.41667
E16   E   0.43893  0.87786  0.75000
E17   E   0.43893  0.56107  0.41667
E18   E   0.43893  0.87786  0.75000
E19   E   0.45928  0.12214  0.58924
E20   E   0.45928  0.22964  0.08333
E21   E   0.45928  0.22964  0.08334
E22   E   0.45928  0.33714  0.57743
E23   E   0.54072  0.66286  0.07743
E24   E   0.54072  0.77036  0.58333
E25   E   0.54072  0.77036  0.58334
E26   E   0.54072  0.87786  0.08924
E27   E   0.56107  0.12214  0.25000
E28   E   0.56107  0.43893  0.91667
E29   E   0.56107  0.12214  0.25000
E30   E   0.56107  0.43893  0.91667
E31   E   0.60179  0.00000  0.50000
E32   E   0.60179  0.60179  0.66667
E33   E   0.66286  0.12214  0.91076
E34   E   0.66286  0.54072  0.25591
E35   E   0.77036  0.22964  0.41666
E36   E   0.77036  0.22964  0.41667
E37   E   0.77036  0.54072  0.75000
E38   E   0.77036  0.54072  0.75000
E39   E   0.87786  0.33714  0.92257
E40   E   0.87786  0.43893  0.58333
E41   E   0.87786  0.43893  0.58333
E42   E   0.87786  0.54072  0.24409
loop_
