data_wjz_P6122  hall_number: 472, V_con: 5
_audit_creation_date              2025-03-05
_audit_creation_method            'MOFbuilder_1.0'
_symmetry_space_group_name_H-M    'P1'
_symmetry_Int_Tables_number       1
_symmetry_cell_setting            triclinic
loop_
_symmetry_equiv_pos_as_xyz
  x,y,z
_cell_length_a                    45.754599999999996
_cell_length_b                    45.754599999999996
_cell_length_c                    10.0
_cell_angle_alpha                 90.0
_cell_angle_beta                  90.0
_cell_angle_gamma                 120.0
loop_
_atom_site_label
_atom_site_type_symbol
_atom_site_fract_x
_atom_site_fract_y
_atom_site_fract_z
V1    V   0.12607  0.46584  0.35477
V2    V   0.12607  0.66023  0.81190
V3    V   0.33977  0.46584  0.14523
V4    V   0.33977  0.87393  0.02144
V5    V   0.46584  0.12607  0.97856
V6    V   0.46584  0.33977  0.18810
V7    V   0.53416  0.66023  0.68810
V8    V   0.53416  0.87393  0.47856
V9    V   0.66023  0.12607  0.52144
V10   V   0.66023  0.53416  0.64523
V11   V   0.87393  0.33977  0.31190
V12   V   0.87393  0.53416  0.85477
E1    E   0.00000  0.40281  0.33333
E2    E   0.00000  0.40281  0.33334
E3    E   0.00000  0.59719  0.83333
E4    E   0.00000  0.59719  0.83334
E5    E   0.12606  0.56303  0.58334
E6    E   0.12606  0.56303  0.58333
E7    E   0.12607  0.46584  0.85477
E8    E   0.12607  0.66023  0.31190
E9    E   0.23292  0.46584  0.25000
E10   E   0.23292  0.76708  0.91667
E11   E   0.33977  0.46584  0.64523
E12   E   0.33977  0.87393  0.52144
E13   E   0.40281  0.00000  0.00000
E14   E   0.40281  0.00000  1.00000
E15   E   0.40281  0.40281  0.16666
E16   E   0.40281  0.40281  0.16667
E17   E   0.43697  0.56303  0.91666
E18   E   0.43697  0.87394  0.25000
E19   E   0.43697  0.56303  0.91667
E20   E   0.43697  0.87394  0.25000
E21   E   0.46584  0.12607  0.47856
E22   E   0.46584  0.23292  0.08333
E23   E   0.46584  0.23292  0.08333
E24   E   0.46584  0.33977  0.68810
E25   E   0.53416  0.66023  0.18810
E26   E   0.53416  0.76708  0.58333
E27   E   0.53416  0.76708  0.58333
E28   E   0.53416  0.87393  0.97856
E29   E   0.56303  0.12606  0.75000
E30   E   0.56303  0.43697  0.41667
E31   E   0.56303  0.12606  0.75000
E32   E   0.56303  0.43697  0.41666
E33   E   0.59719  0.00000  0.50000
E34   E   0.59719  0.00000  0.50000
E35   E   0.59719  0.59719  0.66666
E36   E   0.59719  0.59719  0.66667
E37   E   0.66023  0.12607  0.02144
E38   E   0.66023  0.53416  0.14523
E39   E   0.76708  0.23292  0.41667
E40   E   0.76708  0.53416  0.75000
E41   E   0.87393  0.33977  0.81190
E42   E   0.87393  0.53416  0.35477
E43   E   0.87394  0.43697  0.08333
E44   E   0.87394  0.43697  0.08334
loop_
