data_wka_P6122  hall_number: 472, V_con: 5
_audit_creation_date              2025-03-05
_audit_creation_method            'MOFbuilder_1.0'
_symmetry_space_group_name_H-M    'P1'
_symmetry_Int_Tables_number       1
_symmetry_cell_setting            triclinic
loop_
_symmetry_equiv_pos_as_xyz
  x,y,z
_cell_length_a                    43.9257
_cell_length_b                    43.9257
_cell_length_c                    10.0
_cell_angle_alpha                 90.0
_cell_angle_beta                  90.0
_cell_angle_gamma                 120.0
loop_
_atom_site_label
_atom_site_type_symbol
_atom_site_fract_x
_atom_site_fract_y
_atom_site_fract_z
V1    V   0.11779  0.44525  0.05518
V2    V   0.11779  0.67254  0.11149
V3    V   0.32746  0.44525  0.44482
V4    V   0.32746  0.88221  0.72185
V5    V   0.44525  0.11779  0.27815
V6    V   0.44525  0.32746  0.88851
V7    V   0.55475  0.67254  0.38851
V8    V   0.55475  0.88221  0.77815
V9    V   0.67254  0.11779  0.22185
V10   V   0.67254  0.55475  0.94482
V11   V   0.88221  0.32746  0.61149
V12   V   0.88221  0.55475  0.55518
E1    E   0.00000  0.38635  0.83333
E2    E   0.00000  0.38635  0.83334
E3    E   0.00000  0.61365  0.33333
E4    E   0.00000  0.61365  0.33334
E5    E   0.11779  0.44525  0.55518
E6    E   0.11779  0.55889  0.08334
E7    E   0.11779  0.55890  0.08333
E8    E   0.11779  0.67254  0.61149
E9    E   0.22262  0.44525  0.25000
E10   E   0.22262  0.77737  0.91667
E11   E   0.22263  0.44525  0.25000
E12   E   0.22263  0.77738  0.91667
E13   E   0.32746  0.44525  0.94482
E14   E   0.32746  0.88221  0.22185
E15   E   0.38635  0.00000  0.50000
E16   E   0.38635  0.00000  0.50000
E17   E   0.38635  0.38635  0.66666
E18   E   0.38635  0.38635  0.66667
E19   E   0.44110  0.55889  0.41666
E20   E   0.44110  0.88221  0.75000
E21   E   0.44111  0.55890  0.41667
E22   E   0.44111  0.88221  0.75000
E23   E   0.44525  0.11779  0.77815
E24   E   0.44525  0.22262  0.08333
E25   E   0.44525  0.22263  0.08333
E26   E   0.44525  0.32746  0.38851
E27   E   0.55475  0.67254  0.88851
E28   E   0.55475  0.77737  0.58333
E29   E   0.55475  0.77738  0.58333
E30   E   0.55475  0.88221  0.27815
E31   E   0.55889  0.11779  0.25000
E32   E   0.55889  0.44110  0.91667
E33   E   0.55890  0.11779  0.25000
E34   E   0.55890  0.44111  0.91666
E35   E   0.61365  0.00000  0.00000
E36   E   0.61365  0.00000  1.00000
E37   E   0.61365  0.61365  0.16666
E38   E   0.61365  0.61365  0.16667
E39   E   0.67254  0.11779  0.72185
E40   E   0.67254  0.55475  0.44482
E41   E   0.77737  0.22262  0.41667
E42   E   0.77737  0.55475  0.75000
E43   E   0.77738  0.22263  0.41667
E44   E   0.77738  0.55475  0.75000
E45   E   0.88221  0.32746  0.11149
E46   E   0.88221  0.44110  0.58333
E47   E   0.88221  0.44111  0.58334
E48   E   0.88221  0.55475  0.05518
loop_
