data_wkb_P6122  hall_number: 472, V_con: 5
_audit_creation_date              2025-03-05
_audit_creation_method            'MOFbuilder_1.0'
_symmetry_space_group_name_H-M    'P1'
_symmetry_Int_Tables_number       1
_symmetry_cell_setting            triclinic
loop_
_symmetry_equiv_pos_as_xyz
  x,y,z
_cell_length_a                    28.385199999999998
_cell_length_b                    28.385199999999998
_cell_length_c                    20.6873
_cell_angle_alpha                 90.0
_cell_angle_beta                  90.0
_cell_angle_gamma                 120.0
loop_
_atom_site_label
_atom_site_type_symbol
_atom_site_fract_x
_atom_site_fract_y
_atom_site_fract_z
V1    V   0.07221  0.36083  0.05929
V2    V   0.07221  0.71138  0.10738
V3    V   0.28862  0.36083  0.44071
V4    V   0.28862  0.92779  0.72596
V5    V   0.36083  0.07221  0.27404
V6    V   0.36083  0.28862  0.89262
V7    V   0.63917  0.71138  0.39262
V8    V   0.63917  0.92779  0.77404
V9    V   0.71138  0.07221  0.22596
V10   V   0.71138  0.63917  0.94071
V11   V   0.92779  0.28862  0.60738
V12   V   0.92779  0.63917  0.55929
E1    E   0.00000  0.32473  0.83333
E2    E   0.00000  0.32473  0.83334
E3    E   0.00000  0.67527  0.33333
E4    E   0.00000  0.67527  0.33334
E5    E   0.07221  0.53610  0.08333
E6    E   0.07221  0.53611  0.08334
E7    E   0.10821  0.32473  0.52405
E8    E   0.10821  0.78348  0.64262
E9    E   0.18041  0.36083  0.25000
E10   E   0.18041  0.81958  0.91667
E11   E   0.18042  0.36083  0.25000
E12   E   0.18042  0.81959  0.91667
E13   E   0.21652  0.32473  0.97595
E14   E   0.21652  0.89179  0.19072
E15   E   0.32473  0.00000  0.50000
E16   E   0.32473  0.00000  0.50000
E17   E   0.32473  0.10821  0.80928
E18   E   0.32473  0.21652  0.35738
E19   E   0.32473  0.32473  0.66666
E20   E   0.32473  0.32473  0.66667
E21   E   0.36083  0.18041  0.08333
E22   E   0.36083  0.18042  0.08333
E23   E   0.46389  0.53610  0.41667
E24   E   0.46389  0.92779  0.75000
E25   E   0.46390  0.53611  0.41666
E26   E   0.46390  0.92779  0.75000
E27   E   0.53610  0.07221  0.25000
E28   E   0.53610  0.46389  0.91666
E29   E   0.53611  0.07221  0.25000
E30   E   0.53611  0.46390  0.91667
E31   E   0.63917  0.81958  0.58333
E32   E   0.63917  0.81959  0.58333
E33   E   0.67527  0.00000  0.00000
E34   E   0.67527  0.00000  1.00000
E35   E   0.67527  0.67527  0.16666
E36   E   0.67527  0.67527  0.16667
E37   E   0.67527  0.78348  0.85738
E38   E   0.67527  0.89179  0.30928
E39   E   0.78348  0.10821  0.69072
E40   E   0.78348  0.67527  0.47595
E41   E   0.81958  0.18041  0.41667
E42   E   0.81958  0.63917  0.75000
E43   E   0.81959  0.18042  0.41667
E44   E   0.81959  0.63917  0.75000
E45   E   0.89179  0.21652  0.14262
E46   E   0.89179  0.67527  0.02405
E47   E   0.92779  0.46389  0.58334
E48   E   0.92779  0.46390  0.58333
loop_
