data_wkc_P6122  hall_number: 472, V_con: 5
_audit_creation_date              2025-03-05
_audit_creation_method            'MOFbuilder_1.0'
_symmetry_space_group_name_H-M    'P1'
_symmetry_Int_Tables_number       1
_symmetry_cell_setting            triclinic
loop_
_symmetry_equiv_pos_as_xyz
  x,y,z
_cell_length_a                    22.7196
_cell_length_b                    22.7196
_cell_length_c                    31.0557
_cell_angle_alpha                 90.0
_cell_angle_beta                  90.0
_cell_angle_gamma                 120.0
loop_
_atom_site_label
_atom_site_type_symbol
_atom_site_fract_x
_atom_site_fract_y
_atom_site_fract_z
V1    V   0.15014  0.42851  0.46323
V2    V   0.15014  0.72163  0.70344
V3    V   0.27837  0.42851  0.03677
V4    V   0.27837  0.84986  0.12990
V5    V   0.42851  0.15014  0.87010
V6    V   0.42851  0.27837  0.29656
V7    V   0.57149  0.72163  0.79656
V8    V   0.57149  0.84986  0.37010
V9    V   0.72163  0.15014  0.62990
V10   V   0.72163  0.57149  0.53677
V11   V   0.84986  0.27837  0.20344
V12   V   0.84986  0.57149  0.96323
E1    E   0.00000  0.35344  0.33333
E2    E   0.00000  0.35344  0.33334
E3    E   0.00000  0.64656  0.83333
E4    E   0.00000  0.64656  0.83334
E5    E   0.06411  0.35344  0.12011
E6    E   0.06411  0.71067  0.04656
E7    E   0.15014  0.57507  0.58333
E8    E   0.15014  0.57507  0.58334
E9    E   0.27837  0.63918  0.08333
E10   E   0.27837  0.63919  0.08334
E11   E   0.28933  0.35344  0.37989
E12   E   0.28933  0.93589  0.78677
E13   E   0.35344  0.00000  0.00000
E14   E   0.35344  0.00000  1.00000
E15   E   0.35344  0.06411  0.21323
E16   E   0.35344  0.28933  0.95344
E17   E   0.35344  0.35344  0.16666
E18   E   0.35344  0.35344  0.16667
E19   E   0.36081  0.63918  0.41667
E20   E   0.36081  0.72163  0.75000
E21   E   0.36082  0.63919  0.41666
E22   E   0.36082  0.72163  0.75000
E23   E   0.42493  0.57507  0.91667
E24   E   0.42493  0.84986  0.25000
E25   E   0.42493  0.57507  0.91666
E26   E   0.42493  0.84986  0.25000
E27   E   0.57507  0.15014  0.75000
E28   E   0.57507  0.15014  0.75000
E29   E   0.57507  0.42493  0.41666
E30   E   0.57507  0.42493  0.41667
E31   E   0.63918  0.27837  0.25000
E32   E   0.63918  0.36081  0.91666
E33   E   0.63919  0.27837  0.25000
E34   E   0.63919  0.36082  0.91667
E35   E   0.64656  0.00000  0.50000
E36   E   0.64656  0.00000  0.50000
E37   E   0.64656  0.64656  0.66666
E38   E   0.64656  0.64656  0.66667
E39   E   0.64656  0.71067  0.45344
E40   E   0.64656  0.93589  0.71323
E41   E   0.71067  0.06411  0.28677
E42   E   0.71067  0.64656  0.87989
E43   E   0.72163  0.36081  0.58334
E44   E   0.72163  0.36082  0.58333
E45   E   0.84986  0.42493  0.08334
E46   E   0.84986  0.42493  0.08333
E47   E   0.93589  0.28933  0.54656
E48   E   0.93589  0.64656  0.62011
loop_
