data_wke_P6322  hall_number: 476, V_con: 5
_audit_creation_date              2025-03-05
_audit_creation_method            'MOFbuilder_1.0'
_symmetry_space_group_name_H-M    'P1'
_symmetry_Int_Tables_number       1
_symmetry_cell_setting            triclinic
loop_
_symmetry_equiv_pos_as_xyz
  x,y,z
_cell_length_a                    45.9207
_cell_length_b                    45.9207
_cell_length_c                    10.0
_cell_angle_alpha                 90.0
_cell_angle_beta                  90.0
_cell_angle_gamma                 120.0
loop_
_atom_site_label
_atom_site_type_symbol
_atom_site_fract_x
_atom_site_fract_y
_atom_site_fract_z
V1    V   0.11950  0.45284  0.34464
V2    V   0.11950  0.66666  0.15536
V3    V   0.33334  0.45284  0.15536
V4    V   0.33334  0.88050  0.34464
V5    V   0.45284  0.11950  0.65536
V6    V   0.45284  0.33334  0.84464
V7    V   0.54716  0.66666  0.34464
V8    V   0.54716  0.88050  0.15536
V9    V   0.66666  0.11950  0.84464
V10   V   0.66666  0.54716  0.65536
V11   V   0.88050  0.33334  0.65536
V12   V   0.88050  0.54716  0.84464
E1    E   0.00000  0.39309  0.50000
E2    E   0.00000  0.60691  0.00000
E3    E   0.11950  0.45284  0.84464
E4    E   0.11950  0.55975  0.25000
E5    E   0.11950  0.66666  0.65536
E6    E   0.22642  0.45284  0.25000
E7    E   0.22642  0.77358  0.25000
E8    E   0.33334  0.45284  0.65536
E9    E   0.33334  0.88050  0.84464
E10   E   0.39309  0.00000  0.50000
E11   E   0.39309  0.39309  0.00000
E12   E   0.44025  0.55975  0.25000
E13   E   0.44025  0.88050  0.25000
E14   E   0.44025  0.55975  0.25000
E15   E   0.44025  0.88050  0.25000
E16   E   0.45284  0.11950  0.15536
E17   E   0.45284  0.22642  0.75000
E18   E   0.45284  0.33334  0.34464
E19   E   0.54716  0.66666  0.84464
E20   E   0.54716  0.77358  0.25000
E21   E   0.54716  0.88050  0.65536
E22   E   0.55975  0.11950  0.75000
E23   E   0.55975  0.44025  0.75000
E24   E   0.55975  0.44025  0.75000
E25   E   0.60691  0.00000  0.00000
E26   E   0.60691  0.60691  0.50000
E27   E   0.66666  0.11950  0.34464
E28   E   0.66666  0.54716  0.15536
E29   E   0.77358  0.22642  0.75000
E30   E   0.77358  0.54716  0.75000
E31   E   0.88050  0.33334  0.15536
E32   E   0.88050  0.44025  0.75000
E33   E   0.88050  0.44025  0.75000
E34   E   0.88050  0.54716  0.34464
loop_
