data_wkg_P6122  hall_number: 472, V_con: 6
_audit_creation_date              2025-03-05
_audit_creation_method            'MOFbuilder_1.0'
_symmetry_space_group_name_H-M    'P1'
_symmetry_Int_Tables_number       1
_symmetry_cell_setting            triclinic
loop_
_symmetry_equiv_pos_as_xyz
  x,y,z
_cell_length_a                    17.1785
_cell_length_b                    17.1785
_cell_length_c                    51.1057
_cell_angle_alpha                 90.0
_cell_angle_beta                  90.0
_cell_angle_gamma                 120.0
loop_
_atom_site_label
_atom_site_type_symbol
_atom_site_fract_x
_atom_site_fract_y
_atom_site_fract_z
V1    V   0.06823  0.33333  0.51251
V2    V   0.06823  0.73490  0.65416
V3    V   0.26510  0.33333  0.98749
V4    V   0.26510  0.93177  0.17917
V5    V   0.33333  0.06823  0.82083
V6    V   0.33333  0.26510  0.34584
V7    V   0.66667  0.73490  0.84584
V8    V   0.66667  0.93177  0.32083
V9    V   0.73490  0.06823  0.67917
V10   V   0.73490  0.66667  0.48749
V11   V   0.93177  0.26510  0.15416
V12   V   0.93177  0.66667  0.01251
E1    E   0.00000  0.09844  0.33333
E2    E   0.00000  0.09844  0.33334
E3    E   0.00000  0.90156  0.83333
E4    E   0.00000  0.90156  0.83334
E5    E   0.06824  0.53412  0.58333
E6    E   0.06824  0.53412  0.58334
E7    E   0.09844  0.00000  0.00000
E8    E   0.09844  0.00000  1.00000
E9    E   0.09844  0.09844  0.16666
E10   E   0.09844  0.09844  0.16667
E11   E   0.09844  0.29922  0.07083
E12   E   0.09844  0.50000  0.00000
E13   E   0.09844  0.59844  0.16666
E14   E   0.09844  0.79922  0.09583
E15   E   0.20078  0.29922  0.42917
E16   E   0.20078  0.90156  0.73750
E17   E   0.29922  0.09844  0.26250
E18   E   0.29922  0.20078  0.90417
E19   E   0.40156  0.50000  0.50000
E20   E   0.40156  0.90156  0.66667
E21   E   0.46588  0.53412  0.91667
E22   E   0.46588  0.93176  0.25000
E23   E   0.46588  0.53412  0.91666
E24   E   0.46588  0.93176  0.25000
E25   E   0.50000  0.09844  0.33333
E26   E   0.50000  0.40156  0.83334
E27   E   0.50000  0.59844  0.33334
E28   E   0.50000  0.90156  0.83333
E29   E   0.53412  0.06824  0.75000
E30   E   0.53412  0.46588  0.41666
E31   E   0.53412  0.06824  0.75000
E32   E   0.53412  0.46588  0.41667
E33   E   0.59844  0.09844  0.16667
E34   E   0.59844  0.50000  1.00000
E35   E   0.70078  0.79922  0.40417
E36   E   0.70078  0.90156  0.76250
E37   E   0.79922  0.09844  0.23750
E38   E   0.79922  0.70078  0.92917
E39   E   0.90156  0.00000  0.50000
E40   E   0.90156  0.00000  0.50000
E41   E   0.90156  0.20078  0.59583
E42   E   0.90156  0.40156  0.66666
E43   E   0.90156  0.50000  0.50000
E44   E   0.90156  0.70078  0.57083
E45   E   0.90156  0.90156  0.66666
E46   E   0.90156  0.90156  0.66667
E47   E   0.93176  0.46588  0.08334
E48   E   0.93176  0.46588  0.08333
loop_
