data_wkl_P6122  hall_number: 472, V_con: 6
_audit_creation_date              2025-03-05
_audit_creation_method            'MOFbuilder_1.0'
_symmetry_space_group_name_H-M    'P1'
_symmetry_Int_Tables_number       1
_symmetry_cell_setting            triclinic
loop_
_symmetry_equiv_pos_as_xyz
  x,y,z
_cell_length_a                    45.701299999999996
_cell_length_b                    45.701299999999996
_cell_length_c                    10.0
_cell_angle_alpha                 90.0
_cell_angle_beta                  90.0
_cell_angle_gamma                 120.0
loop_
_atom_site_label
_atom_site_type_symbol
_atom_site_fract_x
_atom_site_fract_y
_atom_site_fract_z
V1    V   0.12633  0.46842  0.33332
V2    V   0.12633  0.65791  0.83334
V3    V   0.34209  0.46842  0.16668
V4    V   0.34209  0.87367  0.99999
V5    V   0.46842  0.12633  0.00001
V6    V   0.46842  0.34209  0.16666
V7    V   0.53158  0.65791  0.66666
V8    V   0.53158  0.87367  0.50001
V9    V   0.65791  0.12633  0.49999
V10   V   0.65791  0.53158  0.66668
V11   V   0.87367  0.34209  0.33334
V12   V   0.87367  0.53158  0.83332
E1    E   0.00000  0.40525  0.33333
E2    E   0.00000  0.59475  0.83333
E3    E   0.12633  0.46842  0.83332
E4    E   0.12633  0.56316  0.08333
E5    E   0.12633  0.56316  0.58333
E6    E   0.12633  0.56317  0.08333
E7    E   0.12633  0.56317  0.58333
E8    E   0.12633  0.65791  0.33334
E9    E   0.23421  0.46842  0.25000
E10   E   0.23421  0.46842  0.25000
E11   E   0.23421  0.76579  0.91666
E12   E   0.23421  0.76579  0.91667
E13   E   0.34209  0.46842  0.66668
E14   E   0.34209  0.87367  0.49999
E15   E   0.40525  0.00000  0.00000
E16   E   0.40525  0.40525  0.16667
E17   E   0.43683  0.56316  0.41667
E18   E   0.43683  0.56316  0.91667
E19   E   0.43683  0.87367  0.25000
E20   E   0.43683  0.87367  0.75000
E21   E   0.43684  0.56317  0.41667
E22   E   0.43684  0.56317  0.91667
E23   E   0.43684  0.87367  0.25000
E24   E   0.43684  0.87367  0.75000
E25   E   0.46842  0.12633  0.50001
E26   E   0.46842  0.23421  0.08333
E27   E   0.46842  0.23421  0.08334
E28   E   0.46842  0.34209  0.66666
E29   E   0.53158  0.65791  0.16666
E30   E   0.53158  0.76579  0.58333
E31   E   0.53158  0.76579  0.58334
E32   E   0.53158  0.87367  0.00001
E33   E   0.56316  0.12633  0.25000
E34   E   0.56316  0.12633  0.75000
E35   E   0.56316  0.43683  0.41667
E36   E   0.56316  0.43683  0.91667
E37   E   0.56317  0.12633  0.25000
E38   E   0.56317  0.12633  0.75000
E39   E   0.56317  0.43684  0.41667
E40   E   0.56317  0.43684  0.91667
E41   E   0.59475  0.00000  0.50000
E42   E   0.59475  0.59475  0.66667
E43   E   0.65791  0.12633  0.99999
E44   E   0.65791  0.53158  0.16668
E45   E   0.76579  0.23421  0.41666
E46   E   0.76579  0.23421  0.41667
E47   E   0.76579  0.53158  0.75000
E48   E   0.76579  0.53158  0.75000
E49   E   0.87367  0.34209  0.83334
E50   E   0.87367  0.43683  0.08333
E51   E   0.87367  0.43683  0.58333
E52   E   0.87367  0.43684  0.08333
E53   E   0.87367  0.43684  0.58333
E54   E   0.87367  0.53158  0.33332
loop_
