data_wko_P6122  hall_number: 472, V_con: 6
_audit_creation_date              2025-03-05
_audit_creation_method            'MOFbuilder_1.0'
_symmetry_space_group_name_H-M    'P1'
_symmetry_Int_Tables_number       1
_symmetry_cell_setting            triclinic
loop_
_symmetry_equiv_pos_as_xyz
  x,y,z
_cell_length_a                    28.7915
_cell_length_b                    28.7915
_cell_length_c                    19.557
_cell_angle_alpha                 90.0
_cell_angle_beta                  90.0
_cell_angle_gamma                 120.0
loop_
_atom_site_label
_atom_site_type_symbol
_atom_site_fract_x
_atom_site_fract_y
_atom_site_fract_z
V1    V   0.04197  0.34732  0.58334
V2    V   0.04197  0.69465  0.58333
V3    V   0.30535  0.34732  0.91666
V4    V   0.30535  0.95803  0.25000
V5    V   0.34732  0.04197  0.75000
V6    V   0.34732  0.30535  0.41667
V7    V   0.65268  0.69465  0.91667
V8    V   0.65268  0.95803  0.25000
V9    V   0.69465  0.04197  0.75000
V10   V   0.69465  0.65268  0.41666
V11   V   0.95803  0.30535  0.08333
V12   V   0.95803  0.65268  0.08334
E1    E   0.00000  0.32634  0.33333
E2    E   0.00000  0.32634  0.33334
E3    E   0.00000  0.32634  0.83333
E4    E   0.00000  0.32634  0.83334
E5    E   0.00000  0.67366  0.33333
E6    E   0.00000  0.67366  0.33334
E7    E   0.00000  0.67366  0.83333
E8    E   0.00000  0.67366  0.83334
E9    E   0.04198  0.52099  0.58334
E10   E   0.04198  0.52099  0.58333
E11   E   0.13169  0.32634  0.00000
E12   E   0.13169  0.80535  0.16666
E13   E   0.17366  0.34732  0.75000
E14   E   0.17366  0.34732  0.75000
E15   E   0.17366  0.82634  0.41666
E16   E   0.17366  0.82634  0.41667
E17   E   0.19465  0.32634  0.50000
E18   E   0.19465  0.86831  0.66667
E19   E   0.32634  0.00000  0.00000
E20   E   0.32634  0.00000  0.50000
E21   E   0.32634  0.00000  0.50000
E22   E   0.32634  0.00000  1.00000
E23   E   0.32634  0.13169  0.33333
E24   E   0.32634  0.19465  0.83334
E25   E   0.32634  0.32634  0.16666
E26   E   0.32634  0.32634  0.16667
E27   E   0.32634  0.32634  0.66666
E28   E   0.32634  0.32634  0.66667
E29   E   0.34732  0.17366  0.58333
E30   E   0.34732  0.17366  0.58334
E31   E   0.47901  0.52099  0.91666
E32   E   0.47901  0.95802  0.25000
E33   E   0.47901  0.52099  0.91667
E34   E   0.47901  0.95802  0.25000
E35   E   0.52099  0.04198  0.75000
E36   E   0.52099  0.47901  0.41667
E37   E   0.52099  0.04198  0.75000
E38   E   0.52099  0.47901  0.41666
E39   E   0.65268  0.82634  0.08333
E40   E   0.65268  0.82634  0.08334
E41   E   0.67366  0.00000  0.00000
E42   E   0.67366  0.00000  0.50000
E43   E   0.67366  0.00000  0.50000
E44   E   0.67366  0.00000  1.00000
E45   E   0.67366  0.67366  0.16666
E46   E   0.67366  0.67366  0.16667
E47   E   0.67366  0.67366  0.66666
E48   E   0.67366  0.67366  0.66667
E49   E   0.67366  0.80535  0.33334
E50   E   0.67366  0.86831  0.83333
E51   E   0.80535  0.13169  0.16667
E52   E   0.80535  0.67366  1.00000
E53   E   0.82634  0.17366  0.91666
E54   E   0.82634  0.17366  0.91667
E55   E   0.82634  0.65268  0.25000
E56   E   0.82634  0.65268  0.25000
E57   E   0.86831  0.19465  0.66666
E58   E   0.86831  0.67366  0.50000
E59   E   0.95802  0.47901  0.08333
E60   E   0.95802  0.47901  0.08334
loop_
