data_wkq_P6122  hall_number: 472, V_con: 6
_audit_creation_date              2025-03-05
_audit_creation_method            'MOFbuilder_1.0'
_symmetry_space_group_name_H-M    'P1'
_symmetry_Int_Tables_number       1
_symmetry_cell_setting            triclinic
loop_
_symmetry_equiv_pos_as_xyz
  x,y,z
_cell_length_a                    24.980600000000003
_cell_length_b                    24.980600000000003
_cell_length_c                    23.133499999999998
_cell_angle_alpha                 90.0
_cell_angle_beta                  90.0
_cell_angle_gamma                 120.0
loop_
_atom_site_label
_atom_site_type_symbol
_atom_site_fract_x
_atom_site_fract_y
_atom_site_fract_z
V1    V   0.18415  0.42523  0.46394
V2    V   0.18415  0.75892  0.70273
V3    V   0.24108  0.42523  0.03606
V4    V   0.24108  0.81585  0.13061
V5    V   0.42523  0.18415  0.86939
V6    V   0.42523  0.24108  0.29727
V7    V   0.57477  0.75892  0.79727
V8    V   0.57477  0.81585  0.36939
V9    V   0.75892  0.18415  0.63061
V10   V   0.75892  0.57477  0.53606
V11   V   0.81585  0.24108  0.20273
V12   V   0.81585  0.57477  0.96394
E1    E   0.00000  0.33316  0.33333
E2    E   0.00000  0.33316  0.33334
E3    E   0.00000  0.66684  0.83333
E4    E   0.00000  0.66684  0.83334
E5    E   0.02847  0.33316  0.11940
E6    E   0.02847  0.69531  0.04727
E7    E   0.18416  0.59208  0.58334
E8    E   0.18416  0.59208  0.58333
E9    E   0.21261  0.42523  0.25000
E10   E   0.21261  0.78738  0.91667
E11   E   0.21262  0.42523  0.25000
E12   E   0.21262  0.78739  0.91667
E13   E   0.24108  0.62054  0.08333
E14   E   0.24108  0.62054  0.08334
E15   E   0.30469  0.33316  0.38060
E16   E   0.30469  0.97153  0.78606
E17   E   0.33316  0.00000  0.00000
E18   E   0.33316  0.00000  1.00000
E19   E   0.33316  0.02847  0.21394
E20   E   0.33316  0.30469  0.95273
E21   E   0.33316  0.33316  0.16666
E22   E   0.33316  0.33316  0.16667
E23   E   0.37946  0.62054  0.41666
E24   E   0.37946  0.62054  0.41667
E25   E   0.37946  0.75892  0.75000
E26   E   0.37946  0.75892  0.75000
E27   E   0.40792  0.59208  0.91666
E28   E   0.40792  0.81584  0.25000
E29   E   0.40792  0.59208  0.91667
E30   E   0.40792  0.81584  0.25000
E31   E   0.42523  0.21261  0.08333
E32   E   0.42523  0.21262  0.08333
E33   E   0.57477  0.78738  0.58333
E34   E   0.57477  0.78739  0.58333
E35   E   0.59208  0.18416  0.75000
E36   E   0.59208  0.40792  0.41667
E37   E   0.59208  0.18416  0.75000
E38   E   0.59208  0.40792  0.41666
E39   E   0.62054  0.24108  0.25000
E40   E   0.62054  0.24108  0.25000
E41   E   0.62054  0.37946  0.91666
E42   E   0.62054  0.37946  0.91667
E43   E   0.66684  0.00000  0.50000
E44   E   0.66684  0.00000  0.50000
E45   E   0.66684  0.66684  0.66666
E46   E   0.66684  0.66684  0.66667
E47   E   0.66684  0.69531  0.45273
E48   E   0.66684  0.97153  0.71394
E49   E   0.69531  0.02847  0.28606
E50   E   0.69531  0.66684  0.88060
E51   E   0.75892  0.37946  0.58333
E52   E   0.75892  0.37946  0.58334
E53   E   0.78738  0.21261  0.41667
E54   E   0.78738  0.57477  0.75000
E55   E   0.78739  0.21262  0.41667
E56   E   0.78739  0.57477  0.75000
E57   E   0.81584  0.40792  0.08333
E58   E   0.81584  0.40792  0.08334
E59   E   0.97153  0.30469  0.54727
E60   E   0.97153  0.66684  0.61940
loop_
