data_wkr_P6/mcc  hall_number: 486, V_con: 6
_audit_creation_date              2025-03-05
_audit_creation_method            'MOFbuilder_1.0'
_symmetry_space_group_name_H-M    'P1'
_symmetry_Int_Tables_number       1
_symmetry_cell_setting            triclinic
loop_
_symmetry_equiv_pos_as_xyz
  x,y,z
_cell_length_a                    31.462400000000002
_cell_length_b                    31.462400000000002
_cell_length_c                    36.330200000000005
_cell_angle_alpha                 90.0
_cell_angle_beta                  90.0
_cell_angle_gamma                 120.0
loop_
_atom_site_label
_atom_site_type_symbol
_atom_site_fract_x
_atom_site_fract_y
_atom_site_fract_z
V1    V   0.14983  0.48316  0.36237
V2    V   0.14983  0.48316  0.63763
V3    V   0.14983  0.66667  0.13763
V4    V   0.14983  0.66667  0.86237
V5    V   0.33333  0.48316  0.13763
V6    V   0.33333  0.48316  0.86237
V7    V   0.33333  0.85017  0.36237
V8    V   0.33333  0.85017  0.63763
V9    V   0.48316  0.14983  0.13763
V10   V   0.48316  0.14983  0.86237
V11   V   0.48316  0.33333  0.36237
V12   V   0.48316  0.33333  0.63763
V13   V   0.51684  0.66667  0.36237
V14   V   0.51684  0.66667  0.63763
V15   V   0.51684  0.85017  0.13763
V16   V   0.51684  0.85017  0.86237
V17   V   0.66667  0.14983  0.36237
V18   V   0.66667  0.14983  0.63763
V19   V   0.66667  0.51684  0.13763
V20   V   0.66667  0.51684  0.86237
V21   V   0.85017  0.33333  0.13763
V22   V   0.85017  0.33333  0.86237
V23   V   0.85017  0.51684  0.36237
V24   V   0.85017  0.51684  0.63763
E1    E   0.00000  0.50000  0.13763
E2    E   0.00000  0.50000  0.36237
E3    E   0.00000  0.50000  0.63763
E4    E   0.00000  0.50000  0.86237
E5    E   0.14983  0.48316  0.50000
E6    E   0.14983  0.57491  0.25000
E7    E   0.14983  0.57491  0.75000
E8    E   0.14983  0.57492  0.25000
E9    E   0.14983  0.57492  0.75000
E10   E   0.14983  0.66667  0.00000
E11   E   0.24158  0.48316  0.25000
E12   E   0.24158  0.48316  0.75000
E13   E   0.24158  0.75842  0.25000
E14   E   0.24158  0.75842  0.75000
E15   E   0.24159  0.57492  0.13763
E16   E   0.24159  0.57492  0.86237
E17   E   0.24159  0.66667  0.36237
E18   E   0.24159  0.66667  0.63763
E19   E   0.33333  0.48316  0.00000
E20   E   0.33333  0.57492  0.36237
E21   E   0.33333  0.57492  0.63763
E22   E   0.33333  0.75841  0.13763
E23   E   0.33333  0.75841  0.86237
E24   E   0.33333  0.85017  0.50000
E25   E   0.42508  0.57491  0.25000
E26   E   0.42508  0.57491  0.75000
E27   E   0.42508  0.66667  0.13763
E28   E   0.42508  0.66667  0.86237
E29   E   0.42508  0.75841  0.36237
E30   E   0.42508  0.75841  0.63763
E31   E   0.42508  0.85017  0.25000
E32   E   0.42508  0.85017  0.75000
E33   E   0.42509  0.57492  0.25000
E34   E   0.42509  0.57492  0.75000
E35   E   0.42509  0.85017  0.25000
E36   E   0.42509  0.85017  0.75000
E37   E   0.48316  0.14983  0.00000
E38   E   0.48316  0.24158  0.25000
E39   E   0.48316  0.24158  0.75000
E40   E   0.48316  0.33333  0.50000
E41   E   0.50000  0.00000  0.13763
E42   E   0.50000  0.00000  0.36237
E43   E   0.50000  0.00000  0.63763
E44   E   0.50000  0.00000  0.86237
E45   E   0.50000  0.50000  0.13763
E46   E   0.50000  0.50000  0.36237
E47   E   0.50000  0.50000  0.63763
E48   E   0.50000  0.50000  0.86237
E49   E   0.51684  0.66667  0.50000
E50   E   0.51684  0.75842  0.25000
E51   E   0.51684  0.75842  0.75000
E52   E   0.51684  0.85017  0.00000
E53   E   0.57491  0.14983  0.25000
E54   E   0.57491  0.14983  0.75000
E55   E   0.57491  0.42508  0.25000
E56   E   0.57491  0.42508  0.75000
E57   E   0.57492  0.14983  0.25000
E58   E   0.57492  0.14983  0.75000
E59   E   0.57492  0.24159  0.36237
E60   E   0.57492  0.24159  0.63763
E61   E   0.57492  0.33333  0.13763
E62   E   0.57492  0.33333  0.86237
E63   E   0.57492  0.42509  0.25000
E64   E   0.57492  0.42509  0.75000
E65   E   0.66667  0.14983  0.50000
E66   E   0.66667  0.24159  0.13763
E67   E   0.66667  0.24159  0.86237
E68   E   0.66667  0.42508  0.36237
E69   E   0.66667  0.42508  0.63763
E70   E   0.66667  0.51684  0.00000
E71   E   0.75841  0.33333  0.36237
E72   E   0.75841  0.33333  0.63763
E73   E   0.75841  0.42508  0.13763
E74   E   0.75841  0.42508  0.86237
E75   E   0.75842  0.24158  0.25000
E76   E   0.75842  0.24158  0.75000
E77   E   0.75842  0.51684  0.25000
E78   E   0.75842  0.51684  0.75000
E79   E   0.85017  0.33333  0.00000
E80   E   0.85017  0.42508  0.25000
E81   E   0.85017  0.42508  0.75000
E82   E   0.85017  0.42509  0.25000
E83   E   0.85017  0.42509  0.75000
E84   E   0.85017  0.51684  0.50000
loop_
