data_wkv_P6122  hall_number: 472, V_con: 7
_audit_creation_date              2025-03-05
_audit_creation_method            'MOFbuilder_1.0'
_symmetry_space_group_name_H-M    'P1'
_symmetry_Int_Tables_number       1
_symmetry_cell_setting            triclinic
loop_
_symmetry_equiv_pos_as_xyz
  x,y,z
_cell_length_a                    17.320500000000003
_cell_length_b                    17.320500000000003
_cell_length_c                    48.989599999999996
_cell_angle_alpha                 90.0
_cell_angle_beta                  90.0
_cell_angle_gamma                 120.0
loop_
_atom_site_label
_atom_site_type_symbol
_atom_site_fract_x
_atom_site_fract_y
_atom_site_fract_z
V1    V   0.00000  0.33333  0.16667
V2    V   0.00000  0.33333  0.50000
V3    V   0.00000  0.66667  0.00000
V4    V   0.00000  0.66667  0.66667
V5    V   0.33333  0.00000  0.16667
V6    V   0.33333  0.00000  0.83333
V7    V   0.33333  0.33333  0.00000
V8    V   0.33333  0.33333  0.33333
V9    V   0.66667  0.00000  0.33333
V10   V   0.66667  0.00000  0.66667
V11   V   0.66667  0.66667  0.50000
V12   V   0.66667  0.66667  0.83333
E1    E   0.00000  0.16666  0.33333
E2    E   0.00000  0.50000  0.08333
E3    E   0.00000  0.50000  0.08334
E4    E   0.00000  0.50000  0.58333
E5    E   0.00000  0.50000  0.58334
E6    E   0.00000  0.83334  0.83333
E7    E   0.16666  0.00000  0.00000
E8    E   0.16666  0.16666  0.16667
E9    E   0.16666  0.33332  0.25000
E10   E   0.16666  0.33332  0.25000
E11   E   0.16666  0.33333  0.08333
E12   E   0.16666  0.50000  0.00000
E13   E   0.16666  0.66666  0.16667
E14   E   0.16666  0.83333  0.08334
E15   E   0.16666  0.83334  0.91666
E16   E   0.16666  0.83334  0.91667
E17   E   0.16667  0.33333  0.41667
E18   E   0.16667  0.83334  0.75000
E19   E   0.33332  0.16666  0.08333
E20   E   0.33332  0.16666  0.08334
E21   E   0.33333  0.16666  0.25000
E22   E   0.33333  0.16667  0.91666
E23   E   0.33334  0.50000  0.50000
E24   E   0.33334  0.83334  0.66667
E25   E   0.50000  0.00000  0.25000
E26   E   0.50000  0.00000  0.25000
E27   E   0.50000  0.00000  0.75000
E28   E   0.50000  0.00000  0.75000
E29   E   0.50000  0.16666  0.33333
E30   E   0.50000  0.33334  0.83333
E31   E   0.50000  0.50000  0.41666
E32   E   0.50000  0.50000  0.41667
E33   E   0.50000  0.50000  0.91666
E34   E   0.50000  0.50000  0.91667
E35   E   0.50000  0.66666  0.33333
E36   E   0.50000  0.83334  0.83333
E37   E   0.66666  0.16666  0.16667
E38   E   0.66666  0.50000  0.00000
E39   E   0.66667  0.83333  0.41666
E40   E   0.66667  0.83334  0.75000
E41   E   0.66668  0.83334  0.58333
E42   E   0.66668  0.83334  0.58334
E43   E   0.83333  0.16666  0.25000
E44   E   0.83333  0.66667  0.91667
E45   E   0.83334  0.00000  0.50000
E46   E   0.83334  0.16666  0.41666
E47   E   0.83334  0.16666  0.41667
E48   E   0.83334  0.16667  0.58334
E49   E   0.83334  0.33334  0.66667
E50   E   0.83334  0.50000  0.50000
E51   E   0.83334  0.66667  0.58333
E52   E   0.83334  0.66668  0.75000
E53   E   0.83334  0.66668  0.75000
E54   E   0.83334  0.83334  0.66667
loop_
