data_wkx_P6122  hall_number: 472, V_con: 5
_audit_creation_date              2025-03-05
_audit_creation_method            'MOFbuilder_1.0'
_symmetry_space_group_name_H-M    'P1'
_symmetry_Int_Tables_number       1
_symmetry_cell_setting            triclinic
loop_
_symmetry_equiv_pos_as_xyz
  x,y,z
_cell_length_a                    19.8335
_cell_length_b                    19.8335
_cell_length_c                    51.1186
_cell_angle_alpha                 90.0
_cell_angle_beta                  90.0
_cell_angle_gamma                 120.0
loop_
_atom_site_label
_atom_site_type_symbol
_atom_site_fract_x
_atom_site_fract_y
_atom_site_fract_z
V1    V   0.09792  0.29896  0.59593
V2    V   0.09792  0.79896  0.57074
V3    V   0.20104  0.29896  0.90407
V4    V   0.20104  0.90208  0.26259
V5    V   0.29896  0.09792  0.73741
V6    V   0.29896  0.20104  0.42926
V7    V   0.70104  0.79896  0.92926
V8    V   0.70104  0.90208  0.23741
V9    V   0.79896  0.09792  0.76259
V10   V   0.79896  0.70104  0.40407
V11   V   0.90208  0.20104  0.07074
V12   V   0.90208  0.70104  0.09593
E1    E   0.00000  0.19845  0.83333
E2    E   0.00000  0.80155  0.33333
E3    E   0.00000  0.80155  0.33333
E4    E   0.04896  0.09792  0.75000
E5    E   0.04896  0.09792  0.75000
E6    E   0.04896  0.95104  0.41666
E7    E   0.04896  0.95104  0.41667
E8    E   0.05155  0.25000  0.98740
E9    E   0.05155  0.80155  0.17926
E10   E   0.09792  0.04896  0.58333
E11   E   0.09792  0.04896  0.58334
E12   E   0.09792  0.54896  0.58333
E13   E   0.09792  0.54896  0.58334
E14   E   0.19845  0.00000  0.50000
E15   E   0.19845  0.19845  0.66667
E16   E   0.19845  0.25000  0.51260
E17   E   0.19845  0.94845  0.65407
E18   E   0.25000  0.05155  0.34593
E19   E   0.25000  0.19845  0.82074
E20   E   0.45104  0.54896  0.91666
E21   E   0.45104  0.54896  0.91667
E22   E   0.45104  0.90208  0.25000
E23   E   0.45104  0.90208  0.25000
E24   E   0.54896  0.09792  0.75000
E25   E   0.54896  0.09792  0.75000
E26   E   0.54896  0.45104  0.41666
E27   E   0.54896  0.45104  0.41667
E28   E   0.75000  0.80155  0.32074
E29   E   0.75000  0.94845  0.84593
E30   E   0.80155  0.00000  0.00000
E31   E   0.80155  0.05155  0.15407
E32   E   0.80155  0.75000  0.01260
E33   E   0.80155  0.80155  0.16667
E34   E   0.80155  0.80155  0.16667
E35   E   0.90208  0.45104  0.08333
E36   E   0.90208  0.45104  0.08334
E37   E   0.90208  0.95104  0.08333
E38   E   0.90208  0.95104  0.08334
E39   E   0.94845  0.19845  0.67926
E40   E   0.94845  0.75000  0.48740
E41   E   0.95104  0.04896  0.91666
E42   E   0.95104  0.04896  0.91667
E43   E   0.95104  0.90208  0.25000
E44   E   0.95104  0.90208  0.25000
loop_
