data_wky_Fddd:2  hall_number: 336, V_con: 6
_audit_creation_date              2025-03-05
_audit_creation_method            'MOFbuilder_1.0'
_symmetry_space_group_name_H-M    'P1'
_symmetry_Int_Tables_number       1
_symmetry_cell_setting            triclinic
loop_
_symmetry_equiv_pos_as_xyz
  x,y,z
_cell_length_a                    10.0
_cell_length_b                    33.143699999999995
_cell_length_c                    54.6783
_cell_angle_alpha                 90.0
_cell_angle_beta                  90.0
_cell_angle_gamma                 90.0
loop_
_atom_site_label
_atom_site_type_symbol
_atom_site_fract_x
_atom_site_fract_y
_atom_site_fract_z
V1    V   0.12500  0.12500  0.45419
V2    V   0.12500  0.12500  0.79581
V3    V   0.12500  0.62500  0.29581
V4    V   0.12500  0.62500  0.95419
V5    V   0.37500  0.37500  0.20419
V6    V   0.37500  0.37500  0.54581
V7    V   0.37500  0.87500  0.04581
V8    V   0.37500  0.87500  0.70419
V9    V   0.62500  0.12500  0.29581
V10   V   0.62500  0.12500  0.95419
V11   V   0.62500  0.62500  0.45419
V12   V   0.62500  0.62500  0.79581
V13   V   0.87500  0.37500  0.04581
V14   V   0.87500  0.37500  0.70419
V15   V   0.87500  0.87500  0.20419
V16   V   0.87500  0.87500  0.54581
E1    E   0.00000  0.00000  0.50000
E2    E   0.00000  0.25000  0.75000
E3    E   0.00000  0.50000  0.00000
E4    E   0.00000  0.75000  0.25000
E5    E   0.12500  0.12500  0.29581
E6    E   0.12500  0.12500  0.95419
E7    E   0.12500  0.37500  0.12500
E8    E   0.12500  0.37500  0.62500
E9    E   0.12500  0.62500  0.45419
E10   E   0.12500  0.62500  0.79581
E11   E   0.12500  0.87500  0.12500
E12   E   0.12500  0.87500  0.62500
E13   E   0.25000  0.00000  0.75000
E14   E   0.25000  0.25000  0.50000
E15   E   0.25000  0.50000  0.25000
E16   E   0.25000  0.75000  0.00000
E17   E   0.37500  0.12500  0.37500
E18   E   0.37500  0.12500  0.87500
E19   E   0.37500  0.37500  0.04581
E20   E   0.37500  0.37500  0.70419
E21   E   0.37500  0.62500  0.37500
E22   E   0.37500  0.62500  0.87500
E23   E   0.37500  0.87500  0.20419
E24   E   0.37500  0.87500  0.54581
E25   E   0.50000  0.00000  0.00000
E26   E   0.50000  0.25000  0.25000
E27   E   0.50000  0.50000  0.50000
E28   E   0.50000  0.75000  0.75000
E29   E   0.62500  0.12500  0.45419
E30   E   0.62500  0.12500  0.79581
E31   E   0.62500  0.37500  0.12500
E32   E   0.62500  0.37500  0.62500
E33   E   0.62500  0.62500  0.29581
E34   E   0.62500  0.62500  0.95419
E35   E   0.62500  0.87500  0.12500
E36   E   0.62500  0.87500  0.62500
E37   E   0.75000  0.00000  0.25000
E38   E   0.75000  0.25000  0.00000
E39   E   0.75000  0.50000  0.75000
E40   E   0.75000  0.75000  0.50000
E41   E   0.87500  0.12500  0.37500
E42   E   0.87500  0.12500  0.87500
E43   E   0.87500  0.37500  0.20419
E44   E   0.87500  0.37500  0.54581
E45   E   0.87500  0.62500  0.37500
E46   E   0.87500  0.62500  0.87500
E47   E   0.87500  0.87500  0.04581
E48   E   0.87500  0.87500  0.70419
loop_
