data_wlb_R32:H  hall_number: 445, V_con: 5
_audit_creation_date              2025-03-05
_audit_creation_method            'MOFbuilder_1.0'
_symmetry_space_group_name_H-M    'P1'
_symmetry_Int_Tables_number       1
_symmetry_cell_setting            triclinic
loop_
_symmetry_equiv_pos_as_xyz
  x,y,z
_cell_length_a                    32.3865
_cell_length_b                    32.3865
_cell_length_c                    23.9825
_cell_angle_alpha                 90.0
_cell_angle_beta                  90.0
_cell_angle_gamma                 120.0
loop_
_atom_site_label
_atom_site_type_symbol
_atom_site_fract_x
_atom_site_fract_y
_atom_site_fract_z
V1    V   0.03526  0.19326  0.20437
V2    V   0.19326  0.20437  0.03526
V3    V   0.20437  0.03526  0.19326
V4    V   0.79563  0.80674  0.96474
V5    V   0.80674  0.96474  0.79563
V6    V   0.96474  0.79563  0.80674
E1    E   0.00000  0.00000  0.17563
E2    E   0.00000  0.00000  0.82437
E3    E   0.00000  0.17563  0.00000
E4    E   0.00000  0.82437  0.00000
E5    E   0.05240  0.83333  0.71907
E6    E   0.07900  0.20437  0.09663
E7    E   0.09663  0.07900  0.20437
E8    E   0.10529  0.33333  0.33333
E9    E   0.16667  0.94760  0.28093
E10   E   0.17563  0.00000  0.00000
E11   E   0.20437  0.09663  0.07900
E12   E   0.28093  0.16667  0.94760
E13   E   0.33333  0.10529  0.33333
E14   E   0.33333  0.33333  0.10529
E15   E   0.66667  0.66667  0.89471
E16   E   0.66667  0.89471  0.66667
E17   E   0.71907  0.05240  0.83333
E18   E   0.79563  0.92100  0.90337
E19   E   0.82437  0.00000  0.00000
E20   E   0.83333  0.71907  0.05240
E21   E   0.89471  0.66667  0.66667
E22   E   0.90337  0.79563  0.92100
E23   E   0.92100  0.90337  0.79563
E24   E   0.94760  0.28093  0.16667
loop_
