data_wlp_R-3c:H  hall_number: 167, V_con: 5
_audit_creation_date              2025-03-05
_audit_creation_method            'MOFbuilder_1.0'
_symmetry_space_group_name_H-M    'P1'
_symmetry_Int_Tables_number       1
_symmetry_cell_setting            triclinic
loop_
_symmetry_equiv_pos_as_xyz
  x,y,z
_cell_length_a                    67.1979
_cell_length_b                    67.1979
_cell_length_c                    12.5762
_cell_angle_alpha                 90.0
_cell_angle_beta                  90.0
_cell_angle_gamma                 120.0
loop_
_atom_site_label
_atom_site_type_symbol
_atom_site_fract_x
_atom_site_fract_y
_atom_site_fract_z
V1    V   0.24932  0.18252  0.00000
V2    V   0.24932  0.31748  0.50000
V3    V   0.74932  0.68252  0.50000
V4    V   0.74932  0.81748  0.00000
E1    E   0.21592  0.21592  0.25000
E2    E   0.21592  0.21592  0.75000
E3    E   0.21592  0.28408  0.25000
E4    E   0.21592  0.28408  0.75000
E5    E   0.24932  0.12466  0.75000
E6    E   0.24932  0.37534  0.25000
E7    E   0.33333  0.22452  0.91667
E8    E   0.33333  0.27548  0.41667
E9    E   0.71592  0.71592  0.25000
E10   E   0.71592  0.71592  0.75000
E11   E   0.71592  0.78408  0.25000
E12   E   0.71592  0.78408  0.75000
E13   E   0.74932  0.62466  0.75000
E14   E   0.74932  0.87534  0.25000
E15   E   0.83333  0.72452  0.58333
E16   E   0.83333  0.77548  0.08333
loop_
