data_wma_P3221  hall_number: 443, V_con: 6
_audit_creation_date              2025-03-05
_audit_creation_method            'MOFbuilder_1.0'
_symmetry_space_group_name_H-M    'P1'
_symmetry_Int_Tables_number       1
_symmetry_cell_setting            triclinic
loop_
_symmetry_equiv_pos_as_xyz
  x,y,z
_cell_length_a                    17.4813
_cell_length_b                    17.4813
_cell_length_c                    20.5795
_cell_angle_alpha                 90.0
_cell_angle_beta                  90.0
_cell_angle_gamma                 120.0
loop_
_atom_site_label
_atom_site_type_symbol
_atom_site_fract_x
_atom_site_fract_y
_atom_site_fract_z
V1    V   0.10087  0.41922  0.06468
V2    V   0.31835  0.89913  0.39801
V3    V   0.41922  0.10087  0.93532
V4    V   0.58078  0.68165  0.73135
V5    V   0.68165  0.58078  0.26865
V6    V   0.89913  0.31835  0.60199
E1    E   0.00000  0.36878  0.83333
E2    E   0.00000  0.36878  0.83334
E3    E   0.00000  0.73996  0.33333
E4    E   0.10874  0.60874  0.50000
E5    E   0.20961  0.65917  0.23135
E6    E   0.26004  0.26004  0.00000
E7    E   0.34083  0.55044  0.89802
E8    E   0.36878  0.00000  0.16666
E9    E   0.36878  0.00000  0.16667
E10   E   0.39126  0.50000  0.16667
E11   E   0.44956  0.79039  0.56469
E12   E   0.50000  0.39126  0.83333
E13   E   0.50000  0.89126  0.83334
E14   E   0.55044  0.34083  0.10198
E15   E   0.60874  0.10874  0.50000
E16   E   0.63122  0.63122  0.50000
E17   E   0.63122  0.63122  0.50000
E18   E   0.65917  0.20961  0.76865
E19   E   0.73996  0.00000  0.66667
E20   E   0.79039  0.44956  0.43531
E21   E   0.89126  0.50000  0.16666
loop_
