data_wmb_P3221  hall_number: 443, V_con: 6
_audit_creation_date              2025-03-05
_audit_creation_method            'MOFbuilder_1.0'
_symmetry_space_group_name_H-M    'P1'
_symmetry_Int_Tables_number       1
_symmetry_cell_setting            triclinic
loop_
_symmetry_equiv_pos_as_xyz
  x,y,z
_cell_length_a                    17.0425
_cell_length_b                    17.0425
_cell_length_c                    28.2405
_cell_angle_alpha                 90.0
_cell_angle_beta                  90.0
_cell_angle_gamma                 120.0
loop_
_atom_site_label
_atom_site_type_symbol
_atom_site_fract_x
_atom_site_fract_y
_atom_site_fract_z
V1    V   0.21903  0.55236  0.96840
V2    V   0.33333  0.78097  0.30173
V3    V   0.44764  0.66667  0.63507
V4    V   0.55236  0.21903  0.03160
V5    V   0.66667  0.44764  0.36493
V6    V   0.78097  0.33333  0.69827
E1    E   0.00000  0.44284  0.83333
E2    E   0.00000  0.44284  0.83334
E3    E   0.00000  0.61431  0.33333
E4    E   0.11431  0.50000  0.66667
E5    E   0.27618  0.66667  0.13507
E6    E   0.33333  0.60951  0.80174
E7    E   0.38569  0.38569  0.00000
E8    E   0.38569  0.88569  0.00000
E9    E   0.39049  0.72382  0.46841
E10   E   0.44284  0.00000  0.16666
E11   E   0.44284  0.00000  0.16667
E12   E   0.50000  0.11431  0.33333
E13   E   0.50000  0.61431  0.33333
E14   E   0.55716  0.55716  0.50000
E15   E   0.55716  0.55716  0.50000
E16   E   0.60951  0.33333  0.19826
E17   E   0.61431  0.00000  0.66667
E18   E   0.61431  0.50000  0.66667
E19   E   0.66667  0.27618  0.86493
E20   E   0.72382  0.39049  0.53159
E21   E   0.88569  0.38569  0.00000
loop_
