data_wmh_R-3:H  hall_number: 148, V_con: 6
_audit_creation_date              2025-03-05
_audit_creation_method            'MOFbuilder_1.0'
_symmetry_space_group_name_H-M    'P1'
_symmetry_Int_Tables_number       1
_symmetry_cell_setting            triclinic
loop_
_symmetry_equiv_pos_as_xyz
  x,y,z
_cell_length_a                    28.1584
_cell_length_b                    28.1584
_cell_length_c                    29.1295
_cell_angle_alpha                 90.0
_cell_angle_beta                  90.0
_cell_angle_gamma                 120.0
loop_
_atom_site_label
_atom_site_type_symbol
_atom_site_fract_x
_atom_site_fract_y
_atom_site_fract_z
V1    V   0.11020  0.53184  0.11785
V2    V   0.38980  0.03184  0.11785
V3    V   0.61020  0.53184  0.88215
V4    V   0.88980  0.03184  0.88215
E1    E   0.00000  0.00000  0.00000
E2    E   0.00000  0.50000  0.00000
E3    E   0.15435  0.52823  0.95118
E4    E   0.16667  0.66667  0.16667
E5    E   0.20721  0.87749  0.16667
E6    E   0.29279  0.37749  0.16667
E7    E   0.33333  0.16667  0.16667
E8    E   0.34565  0.02823  0.95118
E9    E   0.50000  0.00000  0.00000
E10   E   0.50000  0.50000  0.00000
E11   E   0.65435  0.52823  0.04882
E12   E   0.66667  0.66667  0.83333
E13   E   0.70721  0.87749  0.83333
E14   E   0.79279  0.37749  0.83333
E15   E   0.83333  0.16667  0.83333
E16   E   0.84565  0.02823  0.04882
loop_
