data_wmi_R32:H  hall_number: 445, V_con: 6
_audit_creation_date              2025-03-05
_audit_creation_method            'MOFbuilder_1.0'
_symmetry_space_group_name_H-M    'P1'
_symmetry_Int_Tables_number       1
_symmetry_cell_setting            triclinic
loop_
_symmetry_equiv_pos_as_xyz
  x,y,z
_cell_length_a                    19.8655
_cell_length_b                    19.8655
_cell_length_c                    56.6731
_cell_angle_alpha                 90.0
_cell_angle_beta                  90.0
_cell_angle_gamma                 120.0
loop_
_atom_site_label
_atom_site_type_symbol
_atom_site_fract_x
_atom_site_fract_y
_atom_site_fract_z
V1    V   0.00000  0.08823  0.46636
V2    V   0.00000  0.53364  0.91177
V3    V   0.08823  0.46636  0.00000
V4    V   0.46636  0.00000  0.08823
V5    V   0.53364  0.91177  0.00000
V6    V   0.91177  0.00000  0.53364
E1    E   0.00000  0.00000  0.46636
E2    E   0.00000  0.00000  0.53364
E3    E   0.00000  0.46636  0.00000
E4    E   0.00000  0.53364  0.00000
E5    E   0.06651  0.66667  0.83333
E6    E   0.08823  0.50000  0.26682
E7    E   0.08823  0.50000  0.76682
E8    E   0.16667  0.33333  0.93349
E9    E   0.23318  0.50000  0.91177
E10   E   0.26682  0.08823  0.50000
E11   E   0.33333  0.93349  0.16667
E12   E   0.46636  0.00000  0.00000
E13   E   0.50000  0.26682  0.08823
E14   E   0.50000  0.76682  0.08823
E15   E   0.50000  0.91177  0.23318
E16   E   0.50000  0.91177  0.73318
E17   E   0.53364  0.00000  0.00000
E18   E   0.66667  0.83333  0.06651
E19   E   0.73318  0.50000  0.91177
E20   E   0.76682  0.08823  0.50000
E21   E   0.83333  0.06651  0.66667
E22   E   0.91177  0.23318  0.50000
E23   E   0.91177  0.73318  0.50000
E24   E   0.93349  0.16667  0.33333
loop_
