data_wmj_P-31c  hall_number: 455, V_con: 6
_audit_creation_date              2025-03-05
_audit_creation_method            'MOFbuilder_1.0'
_symmetry_space_group_name_H-M    'P1'
_symmetry_Int_Tables_number       1
_symmetry_cell_setting            triclinic
loop_
_symmetry_equiv_pos_as_xyz
  x,y,z
_cell_length_a                    28.3437
_cell_length_b                    28.3437
_cell_length_c                    19.2218
_cell_angle_alpha                 90.0
_cell_angle_beta                  90.0
_cell_angle_gamma                 120.0
loop_
_atom_site_label
_atom_site_type_symbol
_atom_site_fract_x
_atom_site_fract_y
_atom_site_fract_z
V1    V   0.05627  0.36505  0.06834
V2    V   0.05627  0.69122  0.43166
V3    V   0.30878  0.36505  0.43166
V4    V   0.30878  0.94373  0.06834
V5    V   0.36505  0.05627  0.56834
V6    V   0.36505  0.30878  0.93166
V7    V   0.63495  0.69122  0.06834
V8    V   0.63495  0.94373  0.43166
V9    V   0.69122  0.05627  0.93166
V10   V   0.69122  0.63495  0.56834
V11   V   0.94373  0.30878  0.56834
V12   V   0.94373  0.63495  0.93166
E1    E   0.00000  0.33691  0.31834
E2    E   0.00000  0.33691  0.81834
E3    E   0.00000  0.50000  0.00000
E4    E   0.00000  0.50000  0.50000
E5    E   0.00000  0.66309  0.18166
E6    E   0.00000  0.66309  0.68166
E7    E   0.12625  0.33691  0.50000
E8    E   0.12625  0.78934  0.00000
E9    E   0.18252  0.36505  0.25000
E10   E   0.18252  0.81747  0.25000
E11   E   0.18253  0.36505  0.25000
E12   E   0.18253  0.81748  0.25000
E13   E   0.21066  0.33691  0.00000
E14   E   0.21066  0.87375  0.50000
E15   E   0.33691  0.00000  0.31834
E16   E   0.33691  0.00000  0.81834
E17   E   0.33691  0.12625  0.00000
E18   E   0.33691  0.21066  0.50000
E19   E   0.33691  0.33691  0.18166
E20   E   0.33691  0.33691  0.68166
E21   E   0.36505  0.18252  0.75000
E22   E   0.36505  0.18253  0.75000
E23   E   0.50000  0.00000  0.00000
E24   E   0.50000  0.00000  0.50000
E25   E   0.50000  0.50000  0.00000
E26   E   0.50000  0.50000  0.50000
E27   E   0.63495  0.81747  0.25000
E28   E   0.63495  0.81748  0.25000
E29   E   0.66309  0.00000  0.18166
E30   E   0.66309  0.00000  0.68166
E31   E   0.66309  0.66309  0.31834
E32   E   0.66309  0.66309  0.81834
E33   E   0.66309  0.78934  0.50000
E34   E   0.66309  0.87375  0.00000
E35   E   0.78934  0.12625  0.50000
E36   E   0.78934  0.66309  0.00000
E37   E   0.81747  0.18252  0.75000
E38   E   0.81747  0.63495  0.75000
E39   E   0.81748  0.18253  0.75000
E40   E   0.81748  0.63495  0.75000
E41   E   0.87375  0.21066  0.00000
E42   E   0.87375  0.66309  0.50000
loop_
