data_wmo_P-3c1  hall_number: 457, V_con: 6
_audit_creation_date              2025-03-05
_audit_creation_method            'MOFbuilder_1.0'
_symmetry_space_group_name_H-M    'P1'
_symmetry_Int_Tables_number       1
_symmetry_cell_setting            triclinic
loop_
_symmetry_equiv_pos_as_xyz
  x,y,z
_cell_length_a                    23.638599999999997
_cell_length_b                    23.638599999999997
_cell_length_c                    28.145500000000002
_cell_angle_alpha                 90.0
_cell_angle_beta                  90.0
_cell_angle_gamma                 120.0
loop_
_atom_site_label
_atom_site_type_symbol
_atom_site_fract_x
_atom_site_fract_y
_atom_site_fract_z
V1    V   0.11265  0.40425  0.90762
V2    V   0.11265  0.70840  0.40762
V3    V   0.29160  0.40425  0.40762
V4    V   0.29160  0.88735  0.90762
V5    V   0.40425  0.11265  0.59238
V6    V   0.40425  0.29160  0.09238
V7    V   0.59575  0.70840  0.90762
V8    V   0.59575  0.88735  0.40762
V9    V   0.70840  0.11265  0.09238
V10   V   0.70840  0.59575  0.59238
V11   V   0.88735  0.29160  0.59238
V12   V   0.88735  0.59575  0.09238
E1    E   0.00000  0.34793  0.75000
E2    E   0.00000  0.50000  0.00000
E3    E   0.00000  0.50000  0.50000
E4    E   0.00000  0.65207  0.25000
E5    E   0.08948  0.34793  0.50000
E6    E   0.08948  0.74155  0.00000
E7    E   0.20213  0.55632  0.40762
E8    E   0.20213  0.64581  0.90762
E9    E   0.25845  0.34793  0.00000
E10   E   0.25845  0.91052  0.50000
E11   E   0.34793  0.00000  0.75000
E12   E   0.34793  0.08948  0.00000
E13   E   0.34793  0.25845  0.50000
E14   E   0.34793  0.34793  0.25000
E15   E   0.35419  0.55632  0.90762
E16   E   0.35419  0.79787  0.40762
E17   E   0.44368  0.64581  0.40762
E18   E   0.44368  0.79787  0.90762
E19   E   0.50000  0.00000  0.00000
E20   E   0.50000  0.00000  0.50000
E21   E   0.50000  0.50000  0.00000
E22   E   0.50000  0.50000  0.50000
E23   E   0.55632  0.20213  0.09238
E24   E   0.55632  0.35419  0.59238
E25   E   0.64581  0.20213  0.59238
E26   E   0.64581  0.44368  0.09238
E27   E   0.65207  0.00000  0.25000
E28   E   0.65207  0.65207  0.75000
E29   E   0.65207  0.74155  0.50000
E30   E   0.65207  0.91052  0.00000
E31   E   0.74155  0.08948  0.50000
E32   E   0.74155  0.65207  0.00000
E33   E   0.79787  0.35419  0.09238
E34   E   0.79787  0.44368  0.59238
E35   E   0.91052  0.25845  0.00000
E36   E   0.91052  0.65207  0.50000
loop_
