data_wmp_R-3m:H  hall_number: 166, V_con: 6
_audit_creation_date              2025-03-05
_audit_creation_method            'MOFbuilder_1.0'
_symmetry_space_group_name_H-M    'P1'
_symmetry_Int_Tables_number       1
_symmetry_cell_setting            triclinic
loop_
_symmetry_equiv_pos_as_xyz
  x,y,z
_cell_length_a                    79.1563
_cell_length_b                    79.1563
_cell_length_c                    10.0
_cell_angle_alpha                 90.0
_cell_angle_beta                  90.0
_cell_angle_gamma                 120.0
loop_
_atom_site_label
_atom_site_type_symbol
_atom_site_fract_x
_atom_site_fract_y
_atom_site_fract_z
V1    V   0.13508  0.39650  0.08333
V2    V   0.13508  0.89650  0.41667
V3    V   0.63508  0.10350  0.58333
V4    V   0.63508  0.60350  0.91667
E1    E   0.09913  0.43246  0.16667
E2    E   0.09913  0.93246  0.33333
E3    E   0.10350  0.33333  0.33333
E4    E   0.10350  0.33333  0.83333
E5    E   0.10350  0.83333  0.16667
E6    E   0.10350  0.83333  0.66667
E7    E   0.13508  0.39650  0.58333
E8    E   0.13508  0.89650  0.91667
E9    E   0.19825  0.39650  0.08333
E10   E   0.19825  0.89650  0.41667
E11   E   0.59913  0.06754  0.66667
E12   E   0.59913  0.56754  0.83333
E13   E   0.60350  0.16667  0.33333
E14   E   0.60350  0.16667  0.83333
E15   E   0.60350  0.66667  0.16667
E16   E   0.60350  0.66667  0.66667
E17   E   0.63508  0.10350  0.08333
E18   E   0.63508  0.60350  0.41667
E19   E   0.69825  0.10350  0.58333
E20   E   0.69825  0.60350  0.91667
loop_
