data_wmq_R-3m:H  hall_number: 166, V_con: 6
_audit_creation_date              2025-03-05
_audit_creation_method            'MOFbuilder_1.0'
_symmetry_space_group_name_H-M    'P1'
_symmetry_Int_Tables_number       1
_symmetry_cell_setting            triclinic
loop_
_symmetry_equiv_pos_as_xyz
  x,y,z
_cell_length_a                    77.0781
_cell_length_b                    77.0781
_cell_length_c                    10.0
_cell_angle_alpha                 90.0
_cell_angle_beta                  90.0
_cell_angle_gamma                 120.0
loop_
_atom_site_label
_atom_site_type_symbol
_atom_site_fract_x
_atom_site_fract_y
_atom_site_fract_z
V1    V   0.25948  0.06487  0.25000
V2    V   0.25948  0.56487  0.25000
V3    V   0.75948  0.43513  0.75000
V4    V   0.75948  0.93513  0.75000
E1    E   0.22704  0.00000  0.00000
E2    E   0.22704  0.00000  0.50000
E3    E   0.22704  0.50000  0.00000
E4    E   0.22704  0.50000  0.50000
E5    E   0.25948  0.06487  0.75000
E6    E   0.25948  0.12974  0.25000
E7    E   0.25948  0.56487  0.75000
E8    E   0.25948  0.62974  0.25000
E9    E   0.33333  0.10180  0.16667
E10   E   0.33333  0.60180  0.33333
E11   E   0.72704  0.00000  0.00000
E12   E   0.72704  0.00000  0.50000
E13   E   0.72704  0.50000  0.00000
E14   E   0.72704  0.50000  0.50000
E15   E   0.75948  0.37026  0.75000
E16   E   0.75948  0.43513  0.25000
E17   E   0.75948  0.87026  0.75000
E18   E   0.75948  0.93513  0.25000
E19   E   0.83333  0.39820  0.66667
E20   E   0.83333  0.89820  0.83333
loop_
