data_wmv_R-3c:H  hall_number: 167, V_con: 6
_audit_creation_date              2025-03-05
_audit_creation_method            'MOFbuilder_1.0'
_symmetry_space_group_name_H-M    'P1'
_symmetry_Int_Tables_number       1
_symmetry_cell_setting            triclinic
loop_
_symmetry_equiv_pos_as_xyz
  x,y,z
_cell_length_a                    50.241800000000005
_cell_length_b                    50.241800000000005
_cell_length_c                    19.3339
_cell_angle_alpha                 90.0
_cell_angle_beta                  90.0
_cell_angle_gamma                 120.0
loop_
_atom_site_label
_atom_site_type_symbol
_atom_site_fract_x
_atom_site_fract_y
_atom_site_fract_z
V1    V   0.08378  0.21851  0.07300
V2    V   0.08378  0.28149  0.57300
V3    V   0.58378  0.71851  0.42700
V4    V   0.58378  0.78149  0.92700
E1    E   0.00000  0.17662  0.25000
E2    E   0.00000  0.32338  0.75000
E3    E   0.10926  0.21851  0.82300
E4    E   0.10926  0.28149  0.32300
E5    E   0.14120  0.16667  0.58333
E6    E   0.14120  0.33333  0.08333
E7    E   0.15115  0.17662  0.00000
E8    E   0.15115  0.32338  0.50000
E9    E   0.50000  0.67662  0.25000
E10   E   0.50000  0.82338  0.75000
E11   E   0.60926  0.71851  0.67700
E12   E   0.60926  0.78149  0.17700
E13   E   0.64120  0.66667  0.91667
E14   E   0.64120  0.83333  0.41667
E15   E   0.65115  0.67662  0.50000
E16   E   0.65115  0.82338  0.00000
loop_
