data_wnb_R-3c:H  hall_number: 167, V_con: 6
_audit_creation_date              2025-03-05
_audit_creation_method            'MOFbuilder_1.0'
_symmetry_space_group_name_H-M    'P1'
_symmetry_Int_Tables_number       1
_symmetry_cell_setting            triclinic
loop_
_symmetry_equiv_pos_as_xyz
  x,y,z
_cell_length_a                    24.674200000000003
_cell_length_b                    24.674200000000003
_cell_length_c                    84.1952
_cell_angle_alpha                 90.0
_cell_angle_beta                  90.0
_cell_angle_gamma                 120.0
loop_
_atom_site_label
_atom_site_type_symbol
_atom_site_fract_x
_atom_site_fract_y
_atom_site_fract_z
V1    V   0.20862  0.24700  0.69169
V2    V   0.20862  0.25300  0.19169
V3    V   0.70862  0.74700  0.80831
V4    V   0.70862  0.75300  0.30831
E1    E   0.12650  0.02219  0.19169
E2    E   0.12650  0.47781  0.69169
E3    E   0.23081  0.23081  0.25000
E4    E   0.23081  0.26919  0.75000
E5    E   0.33333  0.16667  0.16667
E6    E   0.33333  0.33333  0.66667
E7    E   0.41546  0.10252  0.66667
E8    E   0.41546  0.39748  0.16667
E9    E   0.62650  0.52219  0.30831
E10   E   0.62650  0.97781  0.80831
E11   E   0.73081  0.73081  0.25000
E12   E   0.73081  0.76919  0.75000
E13   E   0.83333  0.66667  0.33333
E14   E   0.83333  0.83333  0.83333
E15   E   0.91546  0.60252  0.83333
E16   E   0.91546  0.89748  0.33333
loop_
