data_wnm_R-3:H  hall_number: 148, V_con: 7
_audit_creation_date              2025-03-05
_audit_creation_method            'MOFbuilder_1.0'
_symmetry_space_group_name_H-M    'P1'
_symmetry_Int_Tables_number       1
_symmetry_cell_setting            triclinic
loop_
_symmetry_equiv_pos_as_xyz
  x,y,z
_cell_length_a                    44.77420000000001
_cell_length_b                    44.77420000000001
_cell_length_c                    9.9999
_cell_angle_alpha                 90.0
_cell_angle_beta                  90.0
_cell_angle_gamma                 120.0
loop_
_atom_site_label
_atom_site_type_symbol
_atom_site_fract_x
_atom_site_fract_y
_atom_site_fract_z
V1    V   0.13812  0.42414  0.20527
V2    V   0.36188  0.92414  0.20527
V3    V   0.63812  0.42414  0.79473
V4    V   0.86188  0.92414  0.79473
E1    E   0.02366  0.40239  0.03860
E2    E   0.13812  0.42414  0.70527
E3    E   0.16667  0.33333  0.33333
E4    E   0.24062  0.94779  0.16667
E5    E   0.25938  0.44779  0.16667
E6    E   0.33333  0.83333  0.33333
E7    E   0.36188  0.92414  0.70527
E8    E   0.47634  0.90239  0.03860
E9    E   0.52366  0.40239  0.96140
E10   E   0.63812  0.42414  0.29473
E11   E   0.66667  0.33333  0.66667
E12   E   0.74062  0.94779  0.83333
E13   E   0.75938  0.44779  0.83333
E14   E   0.83333  0.83333  0.66667
E15   E   0.86188  0.92414  0.29473
E16   E   0.97634  0.90239  0.96140
loop_
