data_wnp_R-3:H  hall_number: 148, V_con: 7
_audit_creation_date              2025-03-05
_audit_creation_method            'MOFbuilder_1.0'
_symmetry_space_group_name_H-M    'P1'
_symmetry_Int_Tables_number       1
_symmetry_cell_setting            triclinic
loop_
_symmetry_equiv_pos_as_xyz
  x,y,z
_cell_length_a                    24.462000000000003
_cell_length_b                    24.462000000000003
_cell_length_c                    37.8174
_cell_angle_alpha                 90.0
_cell_angle_beta                  90.0
_cell_angle_gamma                 120.0
loop_
_atom_site_label
_atom_site_type_symbol
_atom_site_fract_x
_atom_site_fract_y
_atom_site_fract_z
V1    V   0.12233  0.41179  0.05871
V2    V   0.37767  0.91179  0.05871
V3    V   0.62233  0.41179  0.94129
V4    V   0.87767  0.91179  0.94129
E1    E   0.00000  0.00000  0.00000
E2    E   0.00000  0.50000  0.00000
E3    E   0.14473  0.06117  0.05871
E4    E   0.23294  0.85062  0.00000
E5    E   0.24977  0.43373  0.16667
E6    E   0.25023  0.93373  0.16667
E7    E   0.26706  0.35062  0.00000
E8    E   0.35527  0.56117  0.05871
E9    E   0.50000  0.00000  0.00000
E10   E   0.50000  0.50000  0.00000
E11   E   0.64473  0.06117  0.94129
E12   E   0.73294  0.85062  0.00000
E13   E   0.74977  0.43373  0.83333
E14   E   0.75023  0.93373  0.83333
E15   E   0.76706  0.35062  0.00000
E16   E   0.85527  0.56117  0.94129
loop_
