data_wnv_R-3c:H  hall_number: 167, V_con: 7
_audit_creation_date              2025-03-05
_audit_creation_method            'MOFbuilder_1.0'
_symmetry_space_group_name_H-M    'P1'
_symmetry_Int_Tables_number       1
_symmetry_cell_setting            triclinic
loop_
_symmetry_equiv_pos_as_xyz
  x,y,z
_cell_length_a                    73.0588
_cell_length_b                    73.0588
_cell_length_c                    10.0
_cell_angle_alpha                 90.0
_cell_angle_beta                  90.0
_cell_angle_gamma                 120.0
loop_
_atom_site_label
_atom_site_type_symbol
_atom_site_fract_x
_atom_site_fract_y
_atom_site_fract_z
V1    V   0.25541  0.18698  0.00000
V2    V   0.25541  0.31302  0.50000
V3    V   0.75541  0.68698  0.50000
V4    V   0.75541  0.81302  0.00000
E1    E   0.22120  0.22120  0.25000
E2    E   0.22120  0.22120  0.75000
E3    E   0.22120  0.27880  0.25000
E4    E   0.22120  0.27880  0.75000
E5    E   0.25541  0.12771  0.75000
E6    E   0.25541  0.18698  0.50000
E7    E   0.25541  0.31302  0.00000
E8    E   0.25541  0.37229  0.25000
E9    E   0.33333  0.22594  0.91667
E10   E   0.33333  0.27406  0.41667
E11   E   0.72120  0.72120  0.25000
E12   E   0.72120  0.72120  0.75000
E13   E   0.72120  0.77880  0.25000
E14   E   0.72120  0.77880  0.75000
E15   E   0.75541  0.62771  0.75000
E16   E   0.75541  0.68698  0.00000
E17   E   0.75541  0.81302  0.50000
E18   E   0.75541  0.87229  0.25000
E19   E   0.83333  0.72594  0.58333
E20   E   0.83333  0.77406  0.08333
loop_
