data_wnw_R-3c:H  hall_number: 167, V_con: 7
_audit_creation_date              2025-03-05
_audit_creation_method            'MOFbuilder_1.0'
_symmetry_space_group_name_H-M    'P1'
_symmetry_Int_Tables_number       1
_symmetry_cell_setting            triclinic
loop_
_symmetry_equiv_pos_as_xyz
  x,y,z
_cell_length_a                    50.061600000000006
_cell_length_b                    50.061600000000006
_cell_length_c                    17.112099999999998
_cell_angle_alpha                 90.0
_cell_angle_beta                  90.0
_cell_angle_gamma                 120.0
loop_
_atom_site_label
_atom_site_type_symbol
_atom_site_fract_x
_atom_site_fract_y
_atom_site_fract_z
V1    V   0.22280  0.16310  0.00000
V2    V   0.22280  0.33690  0.50000
V3    V   0.72280  0.66310  0.50000
V4    V   0.72280  0.83690  0.00000
E1    E   0.19295  0.05170  0.00000
E2    E   0.19295  0.19295  0.25000
E3    E   0.19295  0.19295  0.75000
E4    E   0.19295  0.30705  0.25000
E5    E   0.19295  0.30705  0.75000
E6    E   0.19295  0.44830  0.50000
E7    E   0.22280  0.11140  0.75000
E8    E   0.22280  0.38860  0.25000
E9    E   0.33333  0.21837  0.91667
E10   E   0.33333  0.28163  0.41667
E11   E   0.69295  0.55170  0.50000
E12   E   0.69295  0.69295  0.25000
E13   E   0.69295  0.69295  0.75000
E14   E   0.69295  0.80705  0.25000
E15   E   0.69295  0.80705  0.75000
E16   E   0.69295  0.94830  0.00000
E17   E   0.72280  0.61140  0.75000
E18   E   0.72280  0.88860  0.25000
E19   E   0.83333  0.71837  0.58333
E20   E   0.83333  0.78163  0.08333
loop_
