data_wuy_I41/amd:2  hall_number: 427, V_con: 7
_audit_creation_date              2025-03-05
_audit_creation_method            'MOFbuilder_1.0'
_symmetry_space_group_name_H-M    'P1'
_symmetry_Int_Tables_number       1
_symmetry_cell_setting            triclinic
loop_
_symmetry_equiv_pos_as_xyz
  x,y,z
_cell_length_a                    39.4159
_cell_length_b                    39.4159
_cell_length_c                    24.823300000000003
_cell_angle_alpha                 90.0
_cell_angle_beta                  90.0
_cell_angle_gamma                 90.0
loop_
_atom_site_label
_atom_site_type_symbol
_atom_site_fract_x
_atom_site_fract_y
_atom_site_fract_z
V1    V   0.12699  0.05096  0.68750
V2    V   0.12699  0.44904  0.68750
V3    V   0.12699  0.55096  0.31250
V4    V   0.12699  0.94904  0.31250
V5    V   0.19904  0.12301  0.06250
V6    V   0.19904  0.37699  0.06250
V7    V   0.19904  0.62301  0.93750
V8    V   0.19904  0.87699  0.93750
V9    V   0.30096  0.12301  0.43750
V10   V   0.30096  0.37699  0.43750
V11   V   0.30096  0.62301  0.56250
V12   V   0.30096  0.87699  0.56250
V13   V   0.37301  0.05096  0.81250
V14   V   0.37301  0.44904  0.81250
V15   V   0.37301  0.55096  0.18750
V16   V   0.37301  0.94904  0.18750
V17   V   0.62699  0.05096  0.81250
V18   V   0.62699  0.44904  0.81250
V19   V   0.62699  0.55096  0.18750
V20   V   0.62699  0.94904  0.18750
V21   V   0.69904  0.12301  0.43750
V22   V   0.69904  0.37699  0.43750
V23   V   0.69904  0.62301  0.56250
V24   V   0.69904  0.87699  0.56250
V25   V   0.80096  0.12301  0.06250
V26   V   0.80096  0.37699  0.06250
V27   V   0.80096  0.62301  0.93750
V28   V   0.80096  0.87699  0.93750
V29   V   0.87301  0.05096  0.68750
V30   V   0.87301  0.44904  0.68750
V31   V   0.87301  0.55096  0.31250
V32   V   0.87301  0.94904  0.31250
E1    E   0.00000  0.05096  0.68750
E2    E   0.00000  0.44904  0.68750
E3    E   0.00000  0.55096  0.31250
E4    E   0.00000  0.94904  0.31250
E5    E   0.12699  0.00000  0.50000
E6    E   0.12699  0.50000  0.50000
E7    E   0.16302  0.03602  0.18750
E8    E   0.16302  0.08698  0.87500
E9    E   0.16302  0.41302  0.87500
E10   E   0.16302  0.46398  0.18750
E11   E   0.16302  0.53602  0.81250
E12   E   0.16302  0.58698  0.12500
E13   E   0.16302  0.91302  0.12500
E14   E   0.16302  0.96398  0.81250
E15   E   0.19904  0.00000  0.00000
E16   E   0.19904  0.25000  0.06250
E17   E   0.19904  0.50000  0.00000
E18   E   0.19904  0.75000  0.93750
E19   E   0.21398  0.03602  0.37500
E20   E   0.21398  0.03602  0.37500
E21   E   0.21398  0.08698  0.56250
E22   E   0.21398  0.41302  0.56250
E23   E   0.21398  0.46398  0.37500
E24   E   0.21398  0.53602  0.62500
E25   E   0.21398  0.53602  0.62500
E26   E   0.21398  0.58698  0.43750
E27   E   0.21398  0.91302  0.43750
E28   E   0.21398  0.96398  0.62500
E29   E   0.21398  0.96398  0.62500
E30   E   0.25000  0.05096  0.75000
E31   E   0.25000  0.12301  0.25000
E32   E   0.25000  0.37699  0.25000
E33   E   0.25000  0.44904  0.75000
E34   E   0.25000  0.55096  0.25000
E35   E   0.25000  0.62301  0.75000
E36   E   0.25000  0.87699  0.75000
E37   E   0.25000  0.94904  0.25000
E38   E   0.28602  0.03602  0.12500
E39   E   0.28602  0.03602  0.12500
E40   E   0.28602  0.08698  0.93750
E41   E   0.28602  0.41302  0.93750
E42   E   0.28602  0.46398  0.12500
E43   E   0.28602  0.53602  0.87500
E44   E   0.28602  0.53602  0.87500
E45   E   0.28602  0.58698  0.06250
E46   E   0.28602  0.91302  0.06250
E47   E   0.28602  0.96398  0.87500
E48   E   0.28602  0.96398  0.87500
E49   E   0.30096  0.00000  0.50000
E50   E   0.30096  0.25000  0.43750
E51   E   0.30096  0.50000  0.50000
E52   E   0.30096  0.75000  0.56250
E53   E   0.33698  0.03602  0.31250
E54   E   0.33698  0.08698  0.62500
E55   E   0.33698  0.41302  0.62500
E56   E   0.33698  0.46398  0.31250
E57   E   0.33698  0.53602  0.68750
E58   E   0.33698  0.58698  0.37500
E59   E   0.33698  0.91302  0.37500
E60   E   0.33698  0.96398  0.68750
E61   E   0.37301  0.00000  0.00000
E62   E   0.37301  0.50000  0.00000
E63   E   0.50000  0.05096  0.81250
E64   E   0.50000  0.44904  0.81250
E65   E   0.50000  0.55096  0.18750
E66   E   0.50000  0.94904  0.18750
E67   E   0.62699  0.00000  0.00000
E68   E   0.62699  0.50000  0.00000
E69   E   0.66302  0.03602  0.31250
E70   E   0.66302  0.08698  0.62500
E71   E   0.66302  0.41302  0.62500
E72   E   0.66302  0.46398  0.31250
E73   E   0.66302  0.53602  0.68750
E74   E   0.66302  0.58698  0.37500
E75   E   0.66302  0.91302  0.37500
E76   E   0.66302  0.96398  0.68750
E77   E   0.69904  0.00000  0.50000
E78   E   0.69904  0.25000  0.43750
E79   E   0.69904  0.50000  0.50000
E80   E   0.69904  0.75000  0.56250
E81   E   0.71398  0.03602  0.12500
E82   E   0.71398  0.08698  0.93750
E83   E   0.71398  0.41302  0.93750
E84   E   0.71398  0.46398  0.12500
E85   E   0.71398  0.53602  0.87500
E86   E   0.71398  0.58698  0.06250
E87   E   0.71398  0.91302  0.06250
E88   E   0.71398  0.96398  0.87500
E89   E   0.71398  0.03602  0.12500
E90   E   0.71398  0.46398  0.12500
E91   E   0.71398  0.53602  0.87500
E92   E   0.71398  0.96398  0.87500
E93   E   0.75000  0.05096  0.75000
E94   E   0.75000  0.12301  0.25000
E95   E   0.75000  0.37699  0.25000
E96   E   0.75000  0.44904  0.75000
E97   E   0.75000  0.55096  0.25000
E98   E   0.75000  0.62301  0.75000
E99   E   0.75000  0.87699  0.75000
E100  E   0.75000  0.94904  0.25000
E101  E   0.78602  0.03602  0.37500
E102  E   0.78602  0.46398  0.37500
E103  E   0.78602  0.53602  0.62500
E104  E   0.78602  0.96398  0.62500
E105  E   0.78602  0.03602  0.37500
E106  E   0.78602  0.08698  0.56250
E107  E   0.78602  0.41302  0.56250
E108  E   0.78602  0.46398  0.37500
E109  E   0.78602  0.53602  0.62500
E110  E   0.78602  0.58698  0.43750
E111  E   0.78602  0.91302  0.43750
E112  E   0.78602  0.96398  0.62500
E113  E   0.80096  0.00000  0.00000
E114  E   0.80096  0.25000  0.06250
E115  E   0.80096  0.50000  0.00000
E116  E   0.80096  0.75000  0.93750
E117  E   0.83698  0.03602  0.18750
E118  E   0.83698  0.08698  0.87500
E119  E   0.83698  0.41302  0.87500
E120  E   0.83698  0.46398  0.18750
E121  E   0.83698  0.53602  0.81250
E122  E   0.83698  0.58698  0.12500
E123  E   0.83698  0.91302  0.12500
E124  E   0.83698  0.96398  0.81250
E125  E   0.87301  0.00000  0.50000
E126  E   0.87301  0.50000  0.50000
loop_
