data_xai_P6/mmm  hall_number: 485, V_con: 4, EC_con: 4
_audit_creation_date              2025-03-05
_audit_creation_method            'MOFbuilder_1.0'
_symmetry_space_group_name_H-M    'P1'
_symmetry_Int_Tables_number       1
_symmetry_cell_setting            triclinic
loop_
_symmetry_equiv_pos_as_xyz
  x,y,z
_cell_length_a                    31.201500000000003
_cell_length_b                    31.201500000000003
_cell_length_c                    18.6884
_cell_angle_alpha                 90.0
_cell_angle_beta                  90.0
_cell_angle_gamma                 120.0
loop_
_atom_site_label
_atom_site_type_symbol
_atom_site_fract_x
_atom_site_fract_y
_atom_site_fract_z
V1    V   0.00000  0.50000  0.00000
V2    V   0.50000  0.00000  0.00000
V3    V   0.50000  0.50000  0.00000
EC1    EC   0.33333  0.66666  0.23246
EC2    EC   0.33333  0.66666  0.76754
EC3    EC   0.33333  0.66667  0.23246
EC4    EC   0.33333  0.66667  0.76754
EC5    EC   0.33334  0.66667  0.23246
EC6    EC   0.33334  0.66667  0.76754
EC7    EC   0.66666  0.33333  0.23246
EC8    EC   0.66666  0.33333  0.76754
EC9    EC   0.66667  0.33333  0.23246
EC10   EC   0.66667  0.33333  0.76754
EC11   EC   0.66667  0.33334  0.23246
EC12   EC   0.66667  0.33334  0.76754
E1    E   0.16667  0.58333  0.11623
E2    E   0.16667  0.58333  0.88377
E3    E   0.16667  0.58334  0.11623
E4    E   0.16667  0.58334  0.88377
E5    E   0.33333  0.66666  0.50000
E6    E   0.33333  0.66667  0.50000
E7    E   0.33334  0.66667  0.50000
E8    E   0.41666  0.58333  0.11623
E9    E   0.41666  0.58333  0.88377
E10   E   0.41666  0.83333  0.11623
E11   E   0.41666  0.83333  0.88377
E12   E   0.41667  0.58334  0.11623
E13   E   0.41667  0.58334  0.88377
E14   E   0.41667  0.83333  0.11623
E15   E   0.41667  0.83333  0.88377
E16   E   0.58333  0.16667  0.11623
E17   E   0.58333  0.16667  0.88377
E18   E   0.58333  0.41666  0.11623
E19   E   0.58333  0.41666  0.88377
E20   E   0.58334  0.16667  0.11623
E21   E   0.58334  0.16667  0.88377
E22   E   0.58334  0.41667  0.11623
E23   E   0.58334  0.41667  0.88377
E24   E   0.66666  0.33333  0.50000
E25   E   0.66667  0.33333  0.50000
E26   E   0.66667  0.33334  0.50000
E27   E   0.83333  0.41666  0.11623
E28   E   0.83333  0.41666  0.88377
E29   E   0.83333  0.41667  0.11623
E30   E   0.83333  0.41667  0.88377
loop_
