data_xao_I4/mmm  hall_number: 424, V_con: 5, EC_con: 3
_audit_creation_date              2025-03-05
_audit_creation_method            'MOFbuilder_1.0'
_symmetry_space_group_name_H-M    'P1'
_symmetry_Int_Tables_number       1
_symmetry_cell_setting            triclinic
loop_
_symmetry_equiv_pos_as_xyz
  x,y,z
_cell_length_a                    18.8679
_cell_length_b                    18.8679
_cell_length_c                    53.2669
_cell_angle_alpha                 90.0
_cell_angle_beta                  90.0
_cell_angle_gamma                 90.0
loop_
_atom_site_label
_atom_site_type_symbol
_atom_site_fract_x
_atom_site_fract_y
_atom_site_fract_z
V1    V   0.00000  0.00000  0.09387
V2    V   0.00000  0.00000  0.90613
V3    V   0.50000  0.50000  0.40613
V4    V   0.50000  0.50000  0.59387
EC1    EC   0.00000  0.50000  0.15613
EC2    EC   0.00000  0.50000  0.34387
EC3    EC   0.00000  0.50000  0.65613
EC4    EC   0.00000  0.50000  0.84387
EC5    EC   0.50000  0.00000  0.15613
EC6    EC   0.50000  0.00000  0.34387
EC7    EC   0.50000  0.00000  0.65613
EC8    EC   0.50000  0.00000  0.84387
E1    E   0.00000  0.00000  0.00000
E2    E   0.00000  0.25000  0.12500
E3    E   0.00000  0.25000  0.87500
E4    E   0.00000  0.50000  0.25000
E5    E   0.00000  0.50000  0.75000
E6    E   0.00000  0.75000  0.12500
E7    E   0.00000  0.75000  0.87500
E8    E   0.25000  0.00000  0.12500
E9    E   0.25000  0.00000  0.87500
E10   E   0.25000  0.50000  0.37500
E11   E   0.25000  0.50000  0.62500
E12   E   0.50000  0.00000  0.25000
E13   E   0.50000  0.00000  0.75000
E14   E   0.50000  0.25000  0.37500
E15   E   0.50000  0.25000  0.62500
E16   E   0.50000  0.50000  0.50000
E17   E   0.50000  0.75000  0.37500
E18   E   0.50000  0.75000  0.62500
E19   E   0.75000  0.00000  0.12500
E20   E   0.75000  0.00000  0.87500
E21   E   0.75000  0.50000  0.37500
E22   E   0.75000  0.50000  0.62500
loop_
