data_xcb_P63/mmc  hall_number: 488, V_con: 4, EC_con: 3
_audit_creation_date              2025-03-05
_audit_creation_method            'MOFbuilder_1.0'
_symmetry_space_group_name_H-M    'P1'
_symmetry_Int_Tables_number       1
_symmetry_cell_setting            triclinic
loop_
_symmetry_equiv_pos_as_xyz
  x,y,z
_cell_length_a                    48.9159
_cell_length_b                    48.9159
_cell_length_c                    26.746599999999997
_cell_angle_alpha                 90.0
_cell_angle_beta                  90.0
_cell_angle_gamma                 120.0
loop_
_atom_site_label
_atom_site_type_symbol
_atom_site_fract_x
_atom_site_fract_y
_atom_site_fract_z
V1    V   0.33333  0.66666  0.56306
V2    V   0.33333  0.66666  0.93694
V3    V   0.33333  0.66667  0.56306
V4    V   0.33333  0.66667  0.93694
V5    V   0.33334  0.66667  0.56306
V6    V   0.33334  0.66667  0.93694
V7    V   0.66666  0.33333  0.06306
V8    V   0.66666  0.33333  0.43694
V9    V   0.66667  0.33333  0.06306
V10   V   0.66667  0.33333  0.43694
V11   V   0.66667  0.33334  0.06306
V12   V   0.66667  0.33334  0.43694
EC1    EC   0.11111  0.55555  0.06306
EC2    EC   0.11111  0.55555  0.43694
EC3    EC   0.11111  0.55556  0.06306
EC4    EC   0.11111  0.55556  0.43694
EC5    EC   0.44444  0.55555  0.06306
EC6    EC   0.44444  0.55555  0.43694
EC7    EC   0.44444  0.88889  0.06306
EC8    EC   0.44444  0.88889  0.43694
EC9    EC   0.44445  0.55556  0.06306
EC10   EC   0.44445  0.55556  0.43694
EC11   EC   0.44445  0.88889  0.06306
EC12   EC   0.44445  0.88889  0.43694
EC13   EC   0.55555  0.11111  0.56306
EC14   EC   0.55555  0.11111  0.93694
EC15   EC   0.55555  0.44444  0.56306
EC16   EC   0.55555  0.44444  0.93694
EC17   EC   0.55556  0.11111  0.56306
EC18   EC   0.55556  0.11111  0.93694
EC19   EC   0.55556  0.44445  0.56306
EC20   EC   0.55556  0.44445  0.93694
EC21   EC   0.88889  0.44444  0.56306
EC22   EC   0.88889  0.44444  0.93694
EC23   EC   0.88889  0.44445  0.56306
EC24   EC   0.88889  0.44445  0.93694
E1    E   0.00000  0.50000  0.00000
E2    E   0.00000  0.50000  0.50000
E3    E   0.11111  0.55555  0.25000
E4    E   0.11111  0.55556  0.25000
E5    E   0.22222  0.61111  0.00000
E6    E   0.22222  0.61111  0.50000
E7    E   0.22222  0.61111  0.00000
E8    E   0.22222  0.61111  0.50000
E9    E   0.33333  0.66666  0.75000
E10   E   0.33333  0.66667  0.75000
E11   E   0.33334  0.66667  0.75000
E12   E   0.38889  0.61111  0.00000
E13   E   0.38889  0.61111  0.50000
E14   E   0.38889  0.77778  0.00000
E15   E   0.38889  0.77778  0.50000
E16   E   0.38889  0.61111  0.00000
E17   E   0.38889  0.61111  0.50000
E18   E   0.38889  0.77778  0.00000
E19   E   0.38889  0.77778  0.50000
E20   E   0.44444  0.55555  0.25000
E21   E   0.44444  0.88889  0.25000
E22   E   0.44445  0.55556  0.25000
E23   E   0.44445  0.88889  0.25000
E24   E   0.50000  0.00000  0.00000
E25   E   0.50000  0.00000  0.50000
E26   E   0.50000  0.50000  0.00000
E27   E   0.50000  0.50000  0.50000
E28   E   0.55555  0.11111  0.75000
E29   E   0.55555  0.44444  0.75000
E30   E   0.55556  0.11111  0.75000
E31   E   0.55556  0.44445  0.75000
E32   E   0.61111  0.22222  0.00000
E33   E   0.61111  0.22222  0.50000
E34   E   0.61111  0.38889  0.00000
E35   E   0.61111  0.38889  0.50000
E36   E   0.61111  0.22222  0.00000
E37   E   0.61111  0.22222  0.50000
E38   E   0.61111  0.38889  0.00000
E39   E   0.61111  0.38889  0.50000
E40   E   0.66666  0.33333  0.25000
E41   E   0.66667  0.33333  0.25000
E42   E   0.66667  0.33334  0.25000
E43   E   0.77778  0.38889  0.00000
E44   E   0.77778  0.38889  0.50000
E45   E   0.77778  0.38889  0.00000
E46   E   0.77778  0.38889  0.50000
E47   E   0.88889  0.44444  0.75000
E48   E   0.88889  0.44445  0.75000
loop_
