data_xfb_I41/a:2  hall_number: 365, V_con: 7
_audit_creation_date              2025-03-05
_audit_creation_method            'MOFbuilder_1.0'
_symmetry_space_group_name_H-M    'P1'
_symmetry_Int_Tables_number       1
_symmetry_cell_setting            triclinic
loop_
_symmetry_equiv_pos_as_xyz
  x,y,z
_cell_length_a                    37.9793
_cell_length_b                    37.9793
_cell_length_c                    9.9999
_cell_angle_alpha                 90.0
_cell_angle_beta                  90.0
_cell_angle_gamma                 90.0
loop_
_atom_site_label
_atom_site_type_symbol
_atom_site_fract_x
_atom_site_fract_y
_atom_site_fract_z
V1    V   0.09353  0.41048  0.09069
V2    V   0.09353  0.91048  0.90931
V3    V   0.16048  0.15647  0.15931
V4    V   0.16048  0.65647  0.84069
V5    V   0.33952  0.34353  0.34069
V6    V   0.33952  0.84353  0.65931
V7    V   0.40647  0.08952  0.40931
V8    V   0.40647  0.58952  0.59069
V9    V   0.59353  0.41048  0.40931
V10   V   0.59353  0.91048  0.59069
V11   V   0.66048  0.15647  0.34069
V12   V   0.66048  0.65647  0.65931
V13   V   0.83952  0.34353  0.15931
V14   V   0.83952  0.84353  0.84069
V15   V   0.90647  0.08952  0.09069
V16   V   0.90647  0.58952  0.90931
E1    E   0.00000  0.00000  0.00000
E2    E   0.00000  0.50000  0.00000
E3    E   0.03348  0.12300  0.12500
E4    E   0.03348  0.62300  0.87500
E5    E   0.09353  0.41048  0.59069
E6    E   0.09353  0.91048  0.40931
E7    E   0.12700  0.03348  0.03431
E8    E   0.12700  0.28348  0.12500
E9    E   0.12700  0.53348  0.96569
E10   E   0.12700  0.78348  0.87500
E11   E   0.16048  0.15647  0.65931
E12   E   0.16048  0.65647  0.34069
E13   E   0.21652  0.37700  0.21569
E14   E   0.21652  0.87700  0.78431
E15   E   0.25000  0.25000  0.25000
E16   E   0.25000  0.75000  0.75000
E17   E   0.28348  0.12300  0.28431
E18   E   0.28348  0.62300  0.71569
E19   E   0.33952  0.34353  0.84069
E20   E   0.33952  0.84353  0.15931
E21   E   0.37300  0.21652  0.37500
E22   E   0.37300  0.46652  0.46569
E23   E   0.37300  0.71652  0.62500
E24   E   0.37300  0.96652  0.53431
E25   E   0.40647  0.08952  0.90931
E26   E   0.40647  0.58952  0.09069
E27   E   0.46652  0.37700  0.37500
E28   E   0.46652  0.87700  0.62500
E29   E   0.50000  0.00000  0.50000
E30   E   0.50000  0.50000  0.50000
E31   E   0.53348  0.12300  0.37500
E32   E   0.53348  0.62300  0.62500
E33   E   0.59353  0.41048  0.90931
E34   E   0.59353  0.91048  0.09069
E35   E   0.62700  0.03348  0.46569
E36   E   0.62700  0.28348  0.37500
E37   E   0.62700  0.53348  0.53431
E38   E   0.62700  0.78348  0.62500
E39   E   0.66048  0.15647  0.84069
E40   E   0.66048  0.65647  0.15931
E41   E   0.71652  0.37700  0.28431
E42   E   0.71652  0.87700  0.71569
E43   E   0.75000  0.25000  0.25000
E44   E   0.75000  0.75000  0.75000
E45   E   0.78348  0.12300  0.21569
E46   E   0.78348  0.62300  0.78431
E47   E   0.83952  0.34353  0.65931
E48   E   0.83952  0.84353  0.34069
E49   E   0.87300  0.21652  0.12500
E50   E   0.87300  0.46652  0.03431
E51   E   0.87300  0.71652  0.87500
E52   E   0.87300  0.96652  0.96569
E53   E   0.90647  0.08952  0.59069
E54   E   0.90647  0.58952  0.40931
E55   E   0.96652  0.37700  0.12500
E56   E   0.96652  0.87700  0.87500
loop_
