data_xfc_I41/amd:2  hall_number: 427, V_con: 7
_audit_creation_date              2025-03-05
_audit_creation_method            'MOFbuilder_1.0'
_symmetry_space_group_name_H-M    'P1'
_symmetry_Int_Tables_number       1
_symmetry_cell_setting            triclinic
loop_
_symmetry_equiv_pos_as_xyz
  x,y,z
_cell_length_a                    23.440599999999996
_cell_length_b                    23.440599999999996
_cell_length_c                    22.212
_cell_angle_alpha                 90.0
_cell_angle_beta                  90.0
_cell_angle_gamma                 90.0
loop_
_atom_site_label
_atom_site_type_symbol
_atom_site_fract_x
_atom_site_fract_y
_atom_site_fract_z
V1    V   0.00000  0.02091  0.22402
V2    V   0.00000  0.47909  0.22402
V3    V   0.00000  0.52091  0.77598
V4    V   0.00000  0.97909  0.77598
V5    V   0.22909  0.25000  0.52598
V6    V   0.22909  0.75000  0.47402
V7    V   0.27091  0.25000  0.97402
V8    V   0.27091  0.75000  0.02598
V9    V   0.50000  0.02091  0.27598
V10   V   0.50000  0.47909  0.27598
V11   V   0.50000  0.52091  0.72402
V12   V   0.50000  0.97909  0.72402
V13   V   0.72909  0.25000  0.97402
V14   V   0.72909  0.75000  0.02598
V15   V   0.77091  0.25000  0.52598
V16   V   0.77091  0.75000  0.47402
E1    E   0.00000  0.00000  0.00000
E2    E   0.00000  0.50000  0.00000
E3    E   0.11455  0.11455  0.65098
E4    E   0.11455  0.38545  0.65098
E5    E   0.11455  0.61455  0.34902
E6    E   0.11455  0.88545  0.34902
E7    E   0.13545  0.11455  0.87500
E8    E   0.13545  0.13545  0.09902
E9    E   0.13545  0.36455  0.09902
E10   E   0.13545  0.38545  0.87500
E11   E   0.13545  0.61455  0.12500
E12   E   0.13545  0.63545  0.90098
E13   E   0.13545  0.86455  0.90098
E14   E   0.13545  0.88545  0.12500
E15   E   0.13545  0.11455  0.87500
E16   E   0.13545  0.38545  0.87500
E17   E   0.13545  0.61455  0.12500
E18   E   0.13545  0.88545  0.12500
E19   E   0.25000  0.25000  0.75000
E20   E   0.25000  0.75000  0.25000
E21   E   0.36455  0.11455  0.62500
E22   E   0.36455  0.38545  0.62500
E23   E   0.36455  0.61455  0.37500
E24   E   0.36455  0.88545  0.37500
E25   E   0.36455  0.11455  0.62500
E26   E   0.36455  0.13545  0.40098
E27   E   0.36455  0.36455  0.40098
E28   E   0.36455  0.38545  0.62500
E29   E   0.36455  0.61455  0.37500
E30   E   0.36455  0.63545  0.59902
E31   E   0.36455  0.86455  0.59902
E32   E   0.36455  0.88545  0.37500
E33   E   0.38545  0.11455  0.84902
E34   E   0.38545  0.38545  0.84902
E35   E   0.38545  0.61455  0.15098
E36   E   0.38545  0.88545  0.15098
E37   E   0.50000  0.00000  0.50000
E38   E   0.50000  0.50000  0.50000
E39   E   0.61455  0.11455  0.84902
E40   E   0.61455  0.38545  0.84902
E41   E   0.61455  0.61455  0.15098
E42   E   0.61455  0.88545  0.15098
E43   E   0.63545  0.11455  0.62500
E44   E   0.63545  0.11455  0.62500
E45   E   0.63545  0.13545  0.40098
E46   E   0.63545  0.36455  0.40098
E47   E   0.63545  0.38545  0.62500
E48   E   0.63545  0.38545  0.62500
E49   E   0.63545  0.61455  0.37500
E50   E   0.63545  0.63545  0.59902
E51   E   0.63545  0.86455  0.59902
E52   E   0.63545  0.88545  0.37500
E53   E   0.75000  0.25000  0.75000
E54   E   0.75000  0.75000  0.25000
E55   E   0.86455  0.11455  0.87500
E56   E   0.86455  0.11455  0.87500
E57   E   0.86455  0.13545  0.09902
E58   E   0.86455  0.36455  0.09902
E59   E   0.86455  0.38545  0.87500
E60   E   0.86455  0.38545  0.87500
E61   E   0.86455  0.61455  0.12500
E62   E   0.86455  0.63545  0.90098
E63   E   0.86455  0.86455  0.90098
E64   E   0.86455  0.88545  0.12500
E65   E   0.88545  0.11455  0.65098
E66   E   0.88545  0.38545  0.65098
E67   E   0.88545  0.61455  0.34902
E68   E   0.88545  0.88545  0.34902
loop_
