data_xfg_I41/a:2  hall_number: 365, V_con: 7
_audit_creation_date              2025-03-05
_audit_creation_method            'MOFbuilder_1.0'
_symmetry_space_group_name_H-M    'P1'
_symmetry_Int_Tables_number       1
_symmetry_cell_setting            triclinic
loop_
_symmetry_equiv_pos_as_xyz
  x,y,z
_cell_length_a                    18.478
_cell_length_b                    18.478
_cell_length_c                    38.7119
_cell_angle_alpha                 90.0
_cell_angle_beta                  90.0
_cell_angle_gamma                 90.0
loop_
_atom_site_label
_atom_site_type_symbol
_atom_site_fract_x
_atom_site_fract_y
_atom_site_fract_z
V1    V   0.15548  0.01855  0.79942
V2    V   0.15548  0.51855  0.20058
V3    V   0.23145  0.40548  0.45058
V4    V   0.23145  0.90548  0.54942
V5    V   0.26855  0.09452  0.04942
V6    V   0.26855  0.59452  0.95058
V7    V   0.34452  0.48145  0.70058
V8    V   0.34452  0.98145  0.29942
V9    V   0.65548  0.01855  0.70058
V10   V   0.65548  0.51855  0.29942
V11   V   0.73145  0.40548  0.04942
V12   V   0.73145  0.90548  0.95058
V13   V   0.76855  0.09452  0.45058
V14   V   0.76855  0.59452  0.54942
V15   V   0.84452  0.48145  0.79942
V16   V   0.84452  0.98145  0.20058
E1    E   0.00000  0.00000  0.50000
E2    E   0.00000  0.50000  0.50000
E3    E   0.05654  0.03798  0.12500
E4    E   0.05654  0.53798  0.87500
E5    E   0.09452  0.48145  0.75000
E6    E   0.09452  0.98145  0.25000
E7    E   0.19346  0.46202  0.32558
E8    E   0.19346  0.96202  0.67442
E9    E   0.21202  0.05654  0.92442
E10   E   0.21202  0.30654  0.12500
E11   E   0.21202  0.55654  0.07558
E12   E   0.21202  0.80654  0.87500
E13   E   0.23145  0.15548  0.50000
E14   E   0.23145  0.65548  0.50000
E15   E   0.25000  0.25000  0.75000
E16   E   0.25000  0.75000  0.25000
E17   E   0.26855  0.34452  0.00000
E18   E   0.26855  0.84452  0.00000
E19   E   0.28798  0.19346  0.37500
E20   E   0.28798  0.44346  0.57558
E21   E   0.28798  0.69346  0.62500
E22   E   0.28798  0.94346  0.42442
E23   E   0.30654  0.03798  0.17442
E24   E   0.30654  0.53798  0.82558
E25   E   0.40548  0.01855  0.75000
E26   E   0.40548  0.51855  0.25000
E27   E   0.44346  0.46202  0.37500
E28   E   0.44346  0.96202  0.62500
E29   E   0.50000  0.00000  0.00000
E30   E   0.50000  0.50000  0.00000
E31   E   0.55654  0.03798  0.37500
E32   E   0.55654  0.53798  0.62500
E33   E   0.59452  0.48145  0.75000
E34   E   0.59452  0.98145  0.25000
E35   E   0.69346  0.46202  0.17442
E36   E   0.69346  0.96202  0.82558
E37   E   0.71202  0.05654  0.57558
E38   E   0.71202  0.30654  0.37500
E39   E   0.71202  0.55654  0.42442
E40   E   0.71202  0.80654  0.62500
E41   E   0.73145  0.15548  0.00000
E42   E   0.73145  0.65548  0.00000
E43   E   0.75000  0.25000  0.75000
E44   E   0.75000  0.75000  0.25000
E45   E   0.76855  0.34452  0.50000
E46   E   0.76855  0.84452  0.50000
E47   E   0.78798  0.19346  0.12500
E48   E   0.78798  0.44346  0.92442
E49   E   0.78798  0.69346  0.87500
E50   E   0.78798  0.94346  0.07558
E51   E   0.80654  0.03798  0.32558
E52   E   0.80654  0.53798  0.67442
E53   E   0.90548  0.01855  0.75000
E54   E   0.90548  0.51855  0.25000
E55   E   0.94346  0.46202  0.12500
E56   E   0.94346  0.96202  0.87500
loop_
