data_xfi_I-42d  hall_number: 399, V_con: 7
_audit_creation_date              2025-03-05
_audit_creation_method            'MOFbuilder_1.0'
_symmetry_space_group_name_H-M    'P1'
_symmetry_Int_Tables_number       1
_symmetry_cell_setting            triclinic
loop_
_symmetry_equiv_pos_as_xyz
  x,y,z
_cell_length_a                    37.9787
_cell_length_b                    37.9787
_cell_length_c                    10.0
_cell_angle_alpha                 90.0
_cell_angle_beta                  90.0
_cell_angle_gamma                 90.0
loop_
_atom_site_label
_atom_site_type_symbol
_atom_site_fract_x
_atom_site_fract_y
_atom_site_fract_z
V1    V   0.11835  0.63599  0.87500
V2    V   0.11835  0.86401  0.37500
V3    V   0.13599  0.11835  0.62500
V4    V   0.13599  0.38165  0.62500
V5    V   0.36401  0.11835  0.12500
V6    V   0.36401  0.38165  0.12500
V7    V   0.38165  0.63599  0.87500
V8    V   0.38165  0.86401  0.37500
V9    V   0.61835  0.13599  0.37500
V10   V   0.61835  0.36401  0.87500
V11   V   0.63599  0.61835  0.12500
V12   V   0.63599  0.88165  0.12500
V13   V   0.86401  0.61835  0.62500
V14   V   0.86401  0.88165  0.62500
V15   V   0.88165  0.13599  0.37500
V16   V   0.88165  0.36401  0.87500
E1    E   0.00882  0.12717  0.50000
E2    E   0.00882  0.37283  0.75000
E3    E   0.11835  0.63599  0.37500
E4    E   0.11835  0.75000  0.12500
E5    E   0.11835  0.75000  0.62500
E6    E   0.11835  0.86401  0.87500
E7    E   0.12717  0.50882  0.75000
E8    E   0.12717  0.99118  0.50000
E9    E   0.13599  0.11835  0.12500
E10   E   0.13599  0.25000  0.62500
E11   E   0.13599  0.38165  0.12500
E12   E   0.25000  0.11835  0.37500
E13   E   0.25000  0.11835  0.87500
E14   E   0.25000  0.38165  0.37500
E15   E   0.25000  0.38165  0.87500
E16   E   0.25000  0.63599  0.87500
E17   E   0.25000  0.86401  0.37500
E18   E   0.36401  0.11835  0.62500
E19   E   0.36401  0.25000  0.12500
E20   E   0.36401  0.38165  0.62500
E21   E   0.37283  0.50882  0.00000
E22   E   0.37283  0.99118  0.25000
E23   E   0.38165  0.63599  0.37500
E24   E   0.38165  0.75000  0.12500
E25   E   0.38165  0.75000  0.62500
E26   E   0.38165  0.86401  0.87500
E27   E   0.49118  0.12717  0.25000
E28   E   0.49118  0.37283  0.00000
E29   E   0.50882  0.62717  0.00000
E30   E   0.50882  0.87283  0.25000
E31   E   0.61835  0.13599  0.87500
E32   E   0.61835  0.25000  0.12500
E33   E   0.61835  0.25000  0.62500
E34   E   0.61835  0.36401  0.37500
E35   E   0.62717  0.00882  0.25000
E36   E   0.62717  0.49118  0.00000
E37   E   0.63599  0.61835  0.62500
E38   E   0.63599  0.75000  0.12500
E39   E   0.63599  0.88165  0.62500
E40   E   0.75000  0.13599  0.37500
E41   E   0.75000  0.36401  0.87500
E42   E   0.75000  0.61835  0.37500
E43   E   0.75000  0.61835  0.87500
E44   E   0.75000  0.88165  0.37500
E45   E   0.75000  0.88165  0.87500
E46   E   0.86401  0.61835  0.12500
E47   E   0.86401  0.75000  0.62500
E48   E   0.86401  0.88165  0.12500
E49   E   0.87283  0.00882  0.50000
E50   E   0.87283  0.49118  0.75000
E51   E   0.88165  0.13599  0.87500
E52   E   0.88165  0.25000  0.12500
E53   E   0.88165  0.25000  0.62500
E54   E   0.88165  0.36401  0.37500
E55   E   0.99118  0.62717  0.75000
E56   E   0.99118  0.87283  0.50000
loop_
