data_xfk_I-42d  hall_number: 399, V_con: 7
_audit_creation_date              2025-03-05
_audit_creation_method            'MOFbuilder_1.0'
_symmetry_space_group_name_H-M    'P1'
_symmetry_Int_Tables_number       1
_symmetry_cell_setting            triclinic
loop_
_symmetry_equiv_pos_as_xyz
  x,y,z
_cell_length_a                    22.7679
_cell_length_b                    22.7679
_cell_length_c                    23.732000000000003
_cell_angle_alpha                 90.0
_cell_angle_beta                  90.0
_cell_angle_gamma                 90.0
loop_
_atom_site_label
_atom_site_type_symbol
_atom_site_fract_x
_atom_site_fract_y
_atom_site_fract_z
V1    V   0.03474  0.71684  0.91673
V2    V   0.03474  0.78316  0.33327
V3    V   0.21684  0.03474  0.66673
V4    V   0.21684  0.46526  0.58327
V5    V   0.28316  0.03474  0.08327
V6    V   0.28316  0.46526  0.16673
V7    V   0.46526  0.71684  0.83327
V8    V   0.46526  0.78316  0.41673
V9    V   0.53474  0.21684  0.41673
V10   V   0.53474  0.28316  0.83327
V11   V   0.71684  0.53474  0.16673
V12   V   0.71684  0.96526  0.08327
V13   V   0.78316  0.53474  0.58327
V14   V   0.78316  0.96526  0.66673
V15   V   0.96526  0.21684  0.33327
V16   V   0.96526  0.28316  0.91673
E1    E   0.00000  0.00000  0.33327
E2    E   0.00000  0.00000  0.66673
E3    E   0.00000  0.50000  0.58327
E4    E   0.00000  0.50000  0.91673
E5    E   0.03474  0.75000  0.12500
E6    E   0.09105  0.15895  0.79173
E7    E   0.09105  0.34105  0.45827
E8    E   0.12421  0.15895  0.00000
E9    E   0.12421  0.34105  0.25000
E10   E   0.15895  0.59105  0.04173
E11   E   0.15895  0.62421  0.25000
E12   E   0.15895  0.87579  0.00000
E13   E   0.15895  0.90895  0.20827
E14   E   0.21684  0.25000  0.62500
E15   E   0.25000  0.03474  0.87500
E16   E   0.25000  0.46526  0.37500
E17   E   0.25000  0.71684  0.87500
E18   E   0.25000  0.78316  0.37500
E19   E   0.28316  0.25000  0.12500
E20   E   0.34105  0.59105  0.70827
E21   E   0.34105  0.62421  0.50000
E22   E   0.34105  0.87579  0.75000
E23   E   0.34105  0.90895  0.54173
E24   E   0.37579  0.15895  0.75000
E25   E   0.37579  0.34105  0.50000
E26   E   0.40895  0.15895  0.95827
E27   E   0.40895  0.34105  0.29173
E28   E   0.46526  0.75000  0.62500
E29   E   0.50000  0.00000  0.08327
E30   E   0.50000  0.00000  0.41673
E31   E   0.50000  0.50000  0.16673
E32   E   0.50000  0.50000  0.83327
E33   E   0.53474  0.25000  0.62500
E34   E   0.59105  0.65895  0.29173
E35   E   0.59105  0.84105  0.95827
E36   E   0.62421  0.65895  0.50000
E37   E   0.62421  0.84105  0.75000
E38   E   0.65895  0.09105  0.54173
E39   E   0.65895  0.12421  0.75000
E40   E   0.65895  0.37579  0.50000
E41   E   0.65895  0.40895  0.70827
E42   E   0.71684  0.75000  0.12500
E43   E   0.75000  0.21684  0.37500
E44   E   0.75000  0.28316  0.87500
E45   E   0.75000  0.53474  0.37500
E46   E   0.75000  0.96526  0.87500
E47   E   0.78316  0.75000  0.62500
E48   E   0.84105  0.09105  0.20827
E49   E   0.84105  0.12421  0.00000
E50   E   0.84105  0.37579  0.25000
E51   E   0.84105  0.40895  0.04173
E52   E   0.87579  0.65895  0.25000
E53   E   0.87579  0.84105  0.00000
E54   E   0.90895  0.65895  0.45827
E55   E   0.90895  0.84105  0.79173
E56   E   0.96526  0.25000  0.12500
loop_
