data_xfp_I41/acd:2  hall_number: 429, V_con: 7
_audit_creation_date              2025-03-05
_audit_creation_method            'MOFbuilder_1.0'
_symmetry_space_group_name_H-M    'P1'
_symmetry_Int_Tables_number       1
_symmetry_cell_setting            triclinic
loop_
_symmetry_equiv_pos_as_xyz
  x,y,z
_cell_length_a                    32.9709
_cell_length_b                    32.9709
_cell_length_c                    27.4249
_cell_angle_alpha                 90.0
_cell_angle_beta                  90.0
_cell_angle_gamma                 90.0
loop_
_atom_site_label
_atom_site_type_symbol
_atom_site_fract_x
_atom_site_fract_y
_atom_site_fract_z
V1    V   0.11123  0.07153  0.91076
V2    V   0.11123  0.42847  0.41076
V3    V   0.11123  0.57153  0.08924
V4    V   0.11123  0.92847  0.58924
V5    V   0.17847  0.13877  0.33924
V6    V   0.17847  0.36123  0.83924
V7    V   0.17847  0.63877  0.66076
V8    V   0.17847  0.86123  0.16076
V9    V   0.32153  0.13877  0.66076
V10   V   0.32153  0.36123  0.16076
V11   V   0.32153  0.63877  0.33924
V12   V   0.32153  0.86123  0.83924
V13   V   0.38877  0.07153  0.08924
V14   V   0.38877  0.42847  0.58924
V15   V   0.38877  0.57153  0.91076
V16   V   0.38877  0.92847  0.41076
V17   V   0.61123  0.07153  0.58924
V18   V   0.61123  0.42847  0.08924
V19   V   0.61123  0.57153  0.41076
V20   V   0.61123  0.92847  0.91076
V21   V   0.67847  0.13877  0.16076
V22   V   0.67847  0.36123  0.66076
V23   V   0.67847  0.63877  0.83924
V24   V   0.67847  0.86123  0.33924
V25   V   0.82153  0.13877  0.83924
V26   V   0.82153  0.36123  0.33924
V27   V   0.82153  0.63877  0.16076
V28   V   0.82153  0.86123  0.66076
V29   V   0.88877  0.07153  0.41076
V30   V   0.88877  0.42847  0.91076
V31   V   0.88877  0.57153  0.58924
V32   V   0.88877  0.92847  0.08924
E1    E   0.00000  0.00000  0.00000
E2    E   0.00000  0.00000  0.50000
E3    E   0.00000  0.50000  0.00000
E4    E   0.00000  0.50000  0.50000
E5    E   0.03362  0.10515  0.37500
E6    E   0.03362  0.39485  0.87500
E7    E   0.03362  0.60515  0.62500
E8    E   0.03362  0.89485  0.12500
E9    E   0.11123  0.00000  0.75000
E10   E   0.11123  0.50000  0.25000
E11   E   0.14485  0.03362  0.46424
E12   E   0.14485  0.21638  0.87500
E13   E   0.14485  0.28362  0.37500
E14   E   0.14485  0.46638  0.96424
E15   E   0.14485  0.53362  0.53576
E16   E   0.14485  0.71638  0.12500
E17   E   0.14485  0.78362  0.62500
E18   E   0.14485  0.96638  0.03576
E19   E   0.21638  0.03362  0.62500
E20   E   0.21638  0.03362  0.62500
E21   E   0.21638  0.10515  0.78576
E22   E   0.21638  0.39485  0.28576
E23   E   0.21638  0.46638  0.12500
E24   E   0.21638  0.53362  0.37500
E25   E   0.21638  0.60515  0.21424
E26   E   0.21638  0.89485  0.71424
E27   E   0.21638  0.96638  0.87500
E28   E   0.25000  0.13877  0.50000
E29   E   0.25000  0.25000  0.25000
E30   E   0.25000  0.25000  0.75000
E31   E   0.25000  0.36123  0.00000
E32   E   0.25000  0.63877  0.50000
E33   E   0.25000  0.75000  0.25000
E34   E   0.25000  0.75000  0.75000
E35   E   0.25000  0.86123  0.00000
E36   E   0.28362  0.03362  0.37500
E37   E   0.28362  0.03362  0.37500
E38   E   0.28362  0.10515  0.21424
E39   E   0.28362  0.39485  0.71424
E40   E   0.28362  0.46638  0.87500
E41   E   0.28362  0.53362  0.62500
E42   E   0.28362  0.60515  0.78576
E43   E   0.28362  0.89485  0.28576
E44   E   0.28362  0.96638  0.12500
E45   E   0.35515  0.03362  0.53576
E46   E   0.35515  0.21638  0.12500
E47   E   0.35515  0.28362  0.62500
E48   E   0.35515  0.46638  0.03576
E49   E   0.35515  0.53362  0.46424
E50   E   0.35515  0.71638  0.87500
E51   E   0.35515  0.78362  0.37500
E52   E   0.35515  0.96638  0.96424
E53   E   0.38877  0.00000  0.25000
E54   E   0.38877  0.50000  0.75000
E55   E   0.46638  0.10515  0.62500
E56   E   0.46638  0.39485  0.12500
E57   E   0.46638  0.60515  0.37500
E58   E   0.46638  0.89485  0.87500
E59   E   0.50000  0.00000  0.00000
E60   E   0.50000  0.00000  0.50000
E61   E   0.50000  0.50000  0.00000
E62   E   0.50000  0.50000  0.50000
E63   E   0.53362  0.10515  0.12500
E64   E   0.53362  0.39485  0.62500
E65   E   0.53362  0.60515  0.87500
E66   E   0.53362  0.89485  0.37500
E67   E   0.61123  0.00000  0.75000
E68   E   0.61123  0.50000  0.25000
E69   E   0.64485  0.03362  0.03576
E70   E   0.64485  0.21638  0.62500
E71   E   0.64485  0.28362  0.12500
E72   E   0.64485  0.46638  0.53576
E73   E   0.64485  0.53362  0.96424
E74   E   0.64485  0.71638  0.37500
E75   E   0.64485  0.78362  0.87500
E76   E   0.64485  0.96638  0.46424
E77   E   0.71638  0.03362  0.87500
E78   E   0.71638  0.03362  0.87500
E79   E   0.71638  0.10515  0.71424
E80   E   0.71638  0.39485  0.21424
E81   E   0.71638  0.46638  0.37500
E82   E   0.71638  0.53362  0.12500
E83   E   0.71638  0.60515  0.28576
E84   E   0.71638  0.89485  0.78576
E85   E   0.71638  0.96638  0.62500
E86   E   0.75000  0.13877  0.00000
E87   E   0.75000  0.25000  0.25000
E88   E   0.75000  0.25000  0.75000
E89   E   0.75000  0.36123  0.50000
E90   E   0.75000  0.63877  0.00000
E91   E   0.75000  0.75000  0.25000
E92   E   0.75000  0.75000  0.75000
E93   E   0.75000  0.86123  0.50000
E94   E   0.78362  0.03362  0.12500
E95   E   0.78362  0.03362  0.12500
E96   E   0.78362  0.10515  0.28576
E97   E   0.78362  0.39485  0.78576
E98   E   0.78362  0.46638  0.62500
E99   E   0.78362  0.53362  0.87500
E100  E   0.78362  0.60515  0.71424
E101  E   0.78362  0.89485  0.21424
E102  E   0.78362  0.96638  0.37500
E103  E   0.85515  0.03362  0.96424
E104  E   0.85515  0.21638  0.37500
E105  E   0.85515  0.28362  0.87500
E106  E   0.85515  0.46638  0.46424
E107  E   0.85515  0.53362  0.03576
E108  E   0.85515  0.71638  0.62500
E109  E   0.85515  0.78362  0.12500
E110  E   0.85515  0.96638  0.53576
E111  E   0.88877  0.00000  0.25000
E112  E   0.88877  0.50000  0.75000
E113  E   0.96638  0.10515  0.87500
E114  E   0.96638  0.39485  0.37500
E115  E   0.96638  0.60515  0.12500
E116  E   0.96638  0.89485  0.62500
loop_
