data_xfu_P42/n:2  hall_number: 362, V_con: 5
_audit_creation_date              2025-03-05
_audit_creation_method            'MOFbuilder_1.0'
_symmetry_space_group_name_H-M    'P1'
_symmetry_Int_Tables_number       1
_symmetry_cell_setting            triclinic
loop_
_symmetry_equiv_pos_as_xyz
  x,y,z
_cell_length_a                    18.9442
_cell_length_b                    18.9442
_cell_length_c                    29.729
_cell_angle_alpha                 90.0
_cell_angle_beta                  90.0
_cell_angle_gamma                 90.0
loop_
_atom_site_label
_atom_site_type_symbol
_atom_site_fract_x
_atom_site_fract_y
_atom_site_fract_z
V1    V   0.00000  0.16538  0.63107
V2    V   0.00000  0.83462  0.36893
V3    V   0.16538  0.50000  0.86893
V4    V   0.33462  0.00000  0.86893
V5    V   0.50000  0.33462  0.63107
V6    V   0.50000  0.66538  0.36893
V7    V   0.66538  0.00000  0.13107
V8    V   0.83462  0.50000  0.13107
E1    E   0.00000  0.00000  0.50000
E2    E   0.00000  0.50000  0.00000
E3    E   0.08269  0.33269  0.75000
E4    E   0.16731  0.08269  0.75000
E5    E   0.25000  0.25000  0.63107
E6    E   0.25000  0.25000  0.86893
E7    E   0.25000  0.75000  0.36893
E8    E   0.25000  0.75000  0.86893
E9    E   0.33269  0.41731  0.75000
E10   E   0.41731  0.16731  0.75000
E11   E   0.50000  0.00000  0.00000
E12   E   0.50000  0.50000  0.50000
E13   E   0.58269  0.83269  0.25000
E14   E   0.66731  0.58269  0.25000
E15   E   0.75000  0.25000  0.13107
E16   E   0.75000  0.25000  0.63107
E17   E   0.75000  0.75000  0.13107
E18   E   0.75000  0.75000  0.36893
E19   E   0.83269  0.91731  0.25000
E20   E   0.91731  0.66731  0.25000
loop_
