data_xfw_P-4c2  hall_number: 393, V_con: 5
_audit_creation_date              2025-03-05
_audit_creation_method            'MOFbuilder_1.0'
_symmetry_space_group_name_H-M    'P1'
_symmetry_Int_Tables_number       1
_symmetry_cell_setting            triclinic
loop_
_symmetry_equiv_pos_as_xyz
  x,y,z
_cell_length_a                    19.7091
_cell_length_b                    19.7091
_cell_length_c                    30.481699999999996
_cell_angle_alpha                 90.0
_cell_angle_beta                  90.0
_cell_angle_gamma                 90.0
loop_
_atom_site_label
_atom_site_type_symbol
_atom_site_fract_x
_atom_site_fract_y
_atom_site_fract_z
V1    V   0.04311  0.25000  0.88401
V2    V   0.04311  0.75000  0.38401
V3    V   0.25000  0.04311  0.61599
V4    V   0.25000  0.95689  0.11599
V5    V   0.75000  0.04311  0.11599
V6    V   0.75000  0.95689  0.61599
V7    V   0.95689  0.25000  0.38401
V8    V   0.95689  0.75000  0.88401
E1    E   0.00000  0.00000  0.11599
E2    E   0.00000  0.00000  0.38401
E3    E   0.00000  0.00000  0.61599
E4    E   0.00000  0.00000  0.88401
E5    E   0.00000  0.50000  0.38401
E6    E   0.00000  0.50000  0.88401
E7    E   0.10344  0.14656  0.50000
E8    E   0.10344  0.85344  0.00000
E9    E   0.14656  0.10344  0.00000
E10   E   0.14656  0.14656  0.75000
E11   E   0.14656  0.85344  0.25000
E12   E   0.14656  0.89656  0.50000
E13   E   0.50000  0.00000  0.11599
E14   E   0.50000  0.00000  0.61599
E15   E   0.85344  0.10344  0.50000
E16   E   0.85344  0.14656  0.25000
E17   E   0.85344  0.85344  0.75000
E18   E   0.85344  0.89656  0.00000
E19   E   0.89656  0.14656  0.00000
E20   E   0.89656  0.85344  0.50000
loop_
