data_xfy_P-4n2  hall_number: 395, V_con: 5
_audit_creation_date              2025-03-05
_audit_creation_method            'MOFbuilder_1.0'
_symmetry_space_group_name_H-M    'P1'
_symmetry_Int_Tables_number       1
_symmetry_cell_setting            triclinic
loop_
_symmetry_equiv_pos_as_xyz
  x,y,z
_cell_length_a                    19.6777
_cell_length_b                    19.6777
_cell_length_c                    30.584899999999998
_cell_angle_alpha                 90.0
_cell_angle_beta                  90.0
_cell_angle_gamma                 90.0
loop_
_atom_site_label
_atom_site_type_symbol
_atom_site_fract_x
_atom_site_fract_y
_atom_site_fract_z
V1    V   0.04544  0.75000  0.61560
V2    V   0.25000  0.04544  0.38440
V3    V   0.25000  0.54544  0.88440
V4    V   0.45456  0.25000  0.11560
V5    V   0.54544  0.75000  0.11560
V6    V   0.75000  0.45456  0.88440
V7    V   0.75000  0.95456  0.38440
V8    V   0.95456  0.25000  0.61560
E1    E   0.00000  0.00000  0.38440
E2    E   0.00000  0.00000  0.61560
E3    E   0.00000  0.50000  0.61560
E4    E   0.00000  0.50000  0.88440
E5    E   0.10228  0.14772  0.50000
E6    E   0.14772  0.64772  0.75000
E7    E   0.14772  0.89772  0.50000
E8    E   0.14772  0.64772  0.75000
E9    E   0.35228  0.14772  0.25000
E10   E   0.35228  0.14772  0.25000
E11   E   0.35228  0.39772  0.00000
E12   E   0.39772  0.64772  0.00000
E13   E   0.50000  0.00000  0.11560
E14   E   0.50000  0.00000  0.38440
E15   E   0.50000  0.50000  0.11560
E16   E   0.50000  0.50000  0.88440
E17   E   0.60228  0.35228  0.00000
E18   E   0.64772  0.60228  0.00000
E19   E   0.64772  0.85228  0.25000
E20   E   0.64772  0.85228  0.25000
E21   E   0.85228  0.35228  0.75000
E22   E   0.85228  0.10228  0.50000
E23   E   0.85228  0.35228  0.75000
E24   E   0.89772  0.85228  0.50000
loop_
