data_xux_I-4m2  hall_number: 396, V_con: 4, EC_con: 3
_audit_creation_date              2025-03-05
_audit_creation_method            'MOFbuilder_1.0'
_symmetry_space_group_name_H-M    'P1'
_symmetry_Int_Tables_number       1
_symmetry_cell_setting            triclinic
loop_
_symmetry_equiv_pos_as_xyz
  x,y,z
_cell_length_a                    27.894399999999997
_cell_length_b                    27.894399999999997
_cell_length_c                    34.915099999999995
_cell_angle_alpha                 90.0
_cell_angle_beta                  90.0
_cell_angle_gamma                 90.0
loop_
_atom_site_label
_atom_site_type_symbol
_atom_site_fract_x
_atom_site_fract_y
_atom_site_fract_z
V1    V   0.00000  0.50000  0.25000
V2    V   0.50000  0.00000  0.75000
EC1    EC   0.00000  0.22062  0.42947
EC2    EC   0.00000  0.77938  0.42947
EC3    EC   0.22062  0.00000  0.57053
EC4    EC   0.27938  0.50000  0.07053
EC5    EC   0.50000  0.27938  0.92947
EC6    EC   0.50000  0.72062  0.92947
EC7    EC   0.72062  0.50000  0.07053
EC8    EC   0.77938  0.00000  0.57053
E1    E   0.00000  0.36031  0.33974
E2    E   0.00000  0.63969  0.33974
E3    E   0.11031  0.11031  0.50000
E4    E   0.11031  0.88969  0.50000
E5    E   0.13969  0.50000  0.16026
E6    E   0.36031  0.00000  0.66026
E7    E   0.38969  0.38969  0.00000
E8    E   0.38969  0.61031  0.00000
E9    E   0.50000  0.13969  0.83974
E10   E   0.50000  0.86031  0.83974
E11   E   0.61031  0.38969  0.00000
E12   E   0.61031  0.61031  0.00000
E13   E   0.63969  0.00000  0.66026
E14   E   0.86031  0.50000  0.16026
E15   E   0.88969  0.11031  0.50000
E16   E   0.88969  0.88969  0.50000
loop_
