data_xww_P121/n1  hall_number: 89, V_con: 5, EC_con: 4
_audit_creation_date              2025-03-05
_audit_creation_method            'MOFbuilder_1.0'
_symmetry_space_group_name_H-M    'P1'
_symmetry_Int_Tables_number       1
_symmetry_cell_setting            triclinic
loop_
_symmetry_equiv_pos_as_xyz
  x,y,z
_cell_length_a                    19.9652
_cell_length_b                    17.0745
_cell_length_c                    32.1113
_cell_angle_alpha                 90.0
_cell_angle_beta                  100.1837
_cell_angle_gamma                 90.0
loop_
_atom_site_label
_atom_site_type_symbol
_atom_site_fract_x
_atom_site_fract_y
_atom_site_fract_z
V1    V   0.18678  0.13374  0.44228
V2    V   0.31322  0.13374  0.94228
V3    V   0.68678  0.86626  0.05772
V4    V   0.81322  0.86626  0.55772
EC1    EC   0.09515  0.13374  0.12588
EC2    EC   0.40485  0.13374  0.62588
EC3    EC   0.59515  0.86626  0.37412
EC4    EC   0.90485  0.86626  0.87412
E1    E   0.00000  0.00000  0.50000
E2    E   0.10903  0.75000  0.96592
E3    E   0.14097  0.13374  0.28408
E4    E   0.20419  0.38374  0.09180
E5    E   0.20419  0.88374  0.09180
E6    E   0.29581  0.38374  0.59180
E7    E   0.29581  0.88374  0.59180
E8    E   0.35903  0.13374  0.78408
E9    E   0.39097  0.75000  0.46592
E10   E   0.50000  0.00000  0.00000
E11   E   0.60903  0.25000  0.53408
E12   E   0.64097  0.86626  0.21592
E13   E   0.70419  0.11626  0.40820
E14   E   0.70419  0.61626  0.40820
E15   E   0.79581  0.11626  0.90820
E16   E   0.79581  0.61626  0.90820
E17   E   0.85903  0.86626  0.71592
E18   E   0.89097  0.25000  0.03408
loop_
