data_yan_I4122  hall_number: 375, V_con: 7
_audit_creation_date              2025-03-05
_audit_creation_method            'MOFbuilder_1.0'
_symmetry_space_group_name_H-M    'P1'
_symmetry_Int_Tables_number       1
_symmetry_cell_setting            triclinic
loop_
_symmetry_equiv_pos_as_xyz
  x,y,z
_cell_length_a                    31.773500000000002
_cell_length_b                    31.773500000000002
_cell_length_c                    9.617099999999999
_cell_angle_alpha                 90.0
_cell_angle_beta                  90.0
_cell_angle_gamma                 90.0
loop_
_atom_site_label
_atom_site_type_symbol
_atom_site_fract_x
_atom_site_fract_y
_atom_site_fract_z
V1    V   0.11349  0.61349  0.25000
V2    V   0.11349  0.88651  0.00000
V3    V   0.11349  0.61349  0.25000
V4    V   0.11349  0.88651  0.00000
V5    V   0.38651  0.61349  0.50000
V6    V   0.38651  0.88651  0.75000
V7    V   0.38651  0.61349  0.50000
V8    V   0.38651  0.88651  0.75000
V9    V   0.61349  0.11349  0.75000
V10   V   0.61349  0.11349  0.75000
V11   V   0.61349  0.38651  0.50000
V12   V   0.61349  0.38651  0.50000
V13   V   0.88651  0.11349  0.00000
V14   V   0.88651  0.11349  0.00000
V15   V   0.88651  0.38651  0.25000
V16   V   0.88651  0.38651  0.25000
E1    E   0.00000  0.00000  0.00000
E2    E   0.00000  0.50000  0.25000
E3    E   0.11349  0.61349  0.75000
E4    E   0.11349  0.88651  0.50000
E5    E   0.11349  0.61349  0.75000
E6    E   0.11349  0.75000  0.12500
E7    E   0.11349  0.75000  0.62500
E8    E   0.11349  0.88651  0.50000
E9    E   0.25000  0.61349  0.37500
E10   E   0.25000  0.61349  0.87500
E11   E   0.25000  0.88651  0.37500
E12   E   0.25000  0.88651  0.87500
E13   E   0.38651  0.61349  0.00000
E14   E   0.38651  0.88651  0.25000
E15   E   0.38651  0.61349  0.00000
E16   E   0.38651  0.75000  0.12500
E17   E   0.38651  0.75000  0.62500
E18   E   0.38651  0.88651  0.25000
E19   E   0.50000  0.00000  0.75000
E20   E   0.50000  0.50000  0.50000
E21   E   0.61349  0.11349  0.25000
E22   E   0.61349  0.11349  0.25000
E23   E   0.61349  0.25000  0.12500
E24   E   0.61349  0.25000  0.62500
E25   E   0.61349  0.38651  0.00000
E26   E   0.61349  0.38651  0.00000
E27   E   0.75000  0.11349  0.37500
E28   E   0.75000  0.11349  0.87500
E29   E   0.75000  0.38651  0.37500
E30   E   0.75000  0.38651  0.87500
E31   E   0.88651  0.11349  0.50000
E32   E   0.88651  0.11349  0.50000
E33   E   0.88651  0.25000  0.12500
E34   E   0.88651  0.25000  0.62500
E35   E   0.88651  0.38651  0.75000
E36   E   0.88651  0.38651  0.75000
loop_
