data_ycq_Pn-3m:2  hall_number: 522, V_con: 4, EC_con: 3
_audit_creation_date              2025-03-05
_audit_creation_method            'MOFbuilder_1.0'
_symmetry_space_group_name_H-M    'P1'
_symmetry_Int_Tables_number       1
_symmetry_cell_setting            triclinic
loop_
_symmetry_equiv_pos_as_xyz
  x,y,z
_cell_length_a                    58.0988
_cell_length_b                    58.0988
_cell_length_c                    58.0988
_cell_angle_alpha                 90.0
_cell_angle_beta                  90.0
_cell_angle_gamma                 90.0
loop_
_atom_site_label
_atom_site_type_symbol
_atom_site_fract_x
_atom_site_fract_y
_atom_site_fract_z
V1    V   0.16674  0.16674  0.77208
V2    V   0.16674  0.33326  0.72792
V3    V   0.16674  0.72792  0.33326
V4    V   0.16674  0.77208  0.16674
V5    V   0.22792  0.66674  0.66674
V6    V   0.22792  0.83326  0.83326
V7    V   0.27208  0.66674  0.83326
V8    V   0.27208  0.83326  0.66674
V9    V   0.33326  0.16674  0.72792
V10   V   0.33326  0.33326  0.77208
V11   V   0.33326  0.72792  0.16674
V12   V   0.33326  0.77208  0.33326
V13   V   0.66674  0.22792  0.66674
V14   V   0.66674  0.27208  0.83326
V15   V   0.66674  0.66674  0.22792
V16   V   0.66674  0.83326  0.27208
V17   V   0.72792  0.16674  0.33326
V18   V   0.72792  0.33326  0.16674
V19   V   0.77208  0.16674  0.16674
V20   V   0.77208  0.33326  0.33326
V21   V   0.83326  0.22792  0.83326
V22   V   0.83326  0.27208  0.66674
V23   V   0.83326  0.66674  0.27208
V24   V   0.83326  0.83326  0.22792
EC1    EC   0.00000  0.18991  0.81009
EC2    EC   0.00000  0.31009  0.68991
EC3    EC   0.00000  0.68991  0.31009
EC4    EC   0.00000  0.81009  0.18991
EC5    EC   0.18991  0.00000  0.81009
EC6    EC   0.18991  0.50000  0.68991
EC7    EC   0.18991  0.68991  0.50000
EC8    EC   0.18991  0.81009  0.00000
EC9    EC   0.31009  0.00000  0.68991
EC10   EC   0.31009  0.50000  0.81009
EC11   EC   0.31009  0.68991  0.00000
EC12   EC   0.31009  0.81009  0.50000
EC13   EC   0.50000  0.18991  0.68991
EC14   EC   0.50000  0.31009  0.81009
EC15   EC   0.50000  0.68991  0.18991
EC16   EC   0.50000  0.81009  0.31009
EC17   EC   0.68991  0.00000  0.31009
EC18   EC   0.68991  0.18991  0.50000
EC19   EC   0.68991  0.31009  0.00000
EC20   EC   0.68991  0.50000  0.18991
EC21   EC   0.81009  0.00000  0.18991
EC22   EC   0.81009  0.18991  0.00000
EC23   EC   0.81009  0.31009  0.50000
EC24   EC   0.81009  0.50000  0.31009
E1    E   0.00000  0.25000  0.75000
E2    E   0.00000  0.75000  0.25000
E3    E   0.08337  0.17832  0.79109
E4    E   0.08337  0.32168  0.70891
E5    E   0.08337  0.70891  0.32168
E6    E   0.08337  0.79109  0.17832
E7    E   0.16674  0.25000  0.75000
E8    E   0.16674  0.75000  0.25000
E9    E   0.17832  0.08337  0.79109
E10   E   0.17832  0.41663  0.70891
E11   E   0.17832  0.70891  0.41663
E12   E   0.17832  0.79109  0.08337
E13   E   0.20891  0.58337  0.67832
E14   E   0.20891  0.67832  0.58337
E15   E   0.20891  0.82168  0.91663
E16   E   0.20891  0.91663  0.82168
E17   E   0.25000  0.00000  0.75000
E18   E   0.25000  0.16674  0.75000
E19   E   0.25000  0.33326  0.75000
E20   E   0.25000  0.50000  0.75000
E21   E   0.25000  0.66674  0.75000
E22   E   0.25000  0.75000  0.00000
E23   E   0.25000  0.75000  0.16674
E24   E   0.25000  0.75000  0.33326
E25   E   0.25000  0.75000  0.50000
E26   E   0.25000  0.75000  0.66674
E27   E   0.25000  0.75000  0.83326
E28   E   0.25000  0.83326  0.75000
E29   E   0.29109  0.58337  0.82168
E30   E   0.29109  0.67832  0.91663
E31   E   0.29109  0.82168  0.58337
E32   E   0.29109  0.91663  0.67832
E33   E   0.32168  0.08337  0.70891
E34   E   0.32168  0.41663  0.79109
E35   E   0.32168  0.70891  0.08337
E36   E   0.32168  0.79109  0.41663
E37   E   0.33326  0.25000  0.75000
E38   E   0.33326  0.75000  0.25000
E39   E   0.41663  0.17832  0.70891
E40   E   0.41663  0.32168  0.79109
E41   E   0.41663  0.70891  0.17832
E42   E   0.41663  0.79109  0.32168
E43   E   0.50000  0.25000  0.75000
E44   E   0.50000  0.75000  0.25000
E45   E   0.58337  0.20891  0.67832
E46   E   0.58337  0.29109  0.82168
E47   E   0.58337  0.67832  0.20891
E48   E   0.58337  0.82168  0.29109
E49   E   0.66674  0.25000  0.75000
E50   E   0.66674  0.75000  0.25000
E51   E   0.67832  0.20891  0.58337
E52   E   0.67832  0.29109  0.91663
E53   E   0.67832  0.58337  0.20891
E54   E   0.67832  0.91663  0.29109
E55   E   0.70891  0.08337  0.32168
E56   E   0.70891  0.17832  0.41663
E57   E   0.70891  0.32168  0.08337
E58   E   0.70891  0.41663  0.17832
E59   E   0.75000  0.00000  0.25000
E60   E   0.75000  0.16674  0.25000
E61   E   0.75000  0.25000  0.00000
E62   E   0.75000  0.25000  0.16674
E63   E   0.75000  0.25000  0.33326
E64   E   0.75000  0.25000  0.50000
E65   E   0.75000  0.25000  0.66674
E66   E   0.75000  0.25000  0.83326
E67   E   0.75000  0.33326  0.25000
E68   E   0.75000  0.50000  0.25000
E69   E   0.75000  0.66674  0.25000
E70   E   0.75000  0.83326  0.25000
E71   E   0.79109  0.08337  0.17832
E72   E   0.79109  0.17832  0.08337
E73   E   0.79109  0.32168  0.41663
E74   E   0.79109  0.41663  0.32168
E75   E   0.82168  0.20891  0.91663
E76   E   0.82168  0.29109  0.58337
E77   E   0.82168  0.58337  0.29109
E78   E   0.82168  0.91663  0.20891
E79   E   0.83326  0.25000  0.75000
E80   E   0.83326  0.75000  0.25000
E81   E   0.91663  0.20891  0.82168
E82   E   0.91663  0.29109  0.67832
E83   E   0.91663  0.67832  0.29109
E84   E   0.91663  0.82168  0.20891
loop_
