data_yff_P42/nmc:2  hall_number: 421, V_con: 5
_audit_creation_date              2025-03-05
_audit_creation_method            'MOFbuilder_1.0'
_symmetry_space_group_name_H-M    'P1'
_symmetry_Int_Tables_number       1
_symmetry_cell_setting            triclinic
loop_
_symmetry_equiv_pos_as_xyz
  x,y,z
_cell_length_a                    38.18
_cell_length_b                    38.18
_cell_length_c                    17.7698
_cell_angle_alpha                 90.0
_cell_angle_beta                  90.0
_cell_angle_gamma                 90.0
loop_
_atom_site_label
_atom_site_type_symbol
_atom_site_fract_x
_atom_site_fract_y
_atom_site_fract_z
V1    V   0.03405  0.11904  0.90835
V2    V   0.03405  0.38096  0.90835
V3    V   0.11904  0.03405  0.40835
V4    V   0.11904  0.46595  0.40835
V5    V   0.38096  0.03405  0.40835
V6    V   0.38096  0.46595  0.40835
V7    V   0.46595  0.11904  0.90835
V8    V   0.46595  0.38096  0.90835
V9    V   0.53405  0.61904  0.09165
V10   V   0.53405  0.88096  0.09165
V11   V   0.61904  0.53405  0.59165
V12   V   0.61904  0.96595  0.59165
V13   V   0.88096  0.53405  0.59165
V14   V   0.88096  0.96595  0.59165
V15   V   0.96595  0.61904  0.09165
V16   V   0.96595  0.88096  0.09165
E1    E   0.00000  0.00000  0.00000
E2    E   0.00000  0.00000  0.50000
E3    E   0.00000  0.50000  0.00000
E4    E   0.00000  0.50000  0.50000
E5    E   0.03405  0.25000  0.90835
E6    E   0.04250  0.54250  0.25000
E7    E   0.04250  0.95750  0.25000
E8    E   0.07655  0.07655  0.15835
E9    E   0.07655  0.07655  0.65835
E10   E   0.07655  0.42345  0.15835
E11   E   0.07655  0.42345  0.65835
E12   E   0.25000  0.03405  0.40835
E13   E   0.25000  0.46595  0.40835
E14   E   0.42345  0.07655  0.15835
E15   E   0.42345  0.07655  0.65835
E16   E   0.42345  0.42345  0.15835
E17   E   0.42345  0.42345  0.65835
E18   E   0.45750  0.54250  0.25000
E19   E   0.45750  0.95750  0.25000
E20   E   0.46595  0.25000  0.90835
E21   E   0.50000  0.00000  0.00000
E22   E   0.50000  0.00000  0.50000
E23   E   0.50000  0.50000  0.00000
E24   E   0.50000  0.50000  0.50000
E25   E   0.53405  0.75000  0.09165
E26   E   0.54250  0.04250  0.75000
E27   E   0.54250  0.45750  0.75000
E28   E   0.57655  0.57655  0.34165
E29   E   0.57655  0.57655  0.84165
E30   E   0.57655  0.92345  0.34165
E31   E   0.57655  0.92345  0.84165
E32   E   0.75000  0.53405  0.59165
E33   E   0.75000  0.96595  0.59165
E34   E   0.92345  0.57655  0.34165
E35   E   0.92345  0.57655  0.84165
E36   E   0.92345  0.92345  0.34165
E37   E   0.92345  0.92345  0.84165
E38   E   0.95750  0.04250  0.75000
E39   E   0.95750  0.45750  0.75000
E40   E   0.96595  0.75000  0.09165
loop_
