data_yfh_P41212  hall_number: 369, V_con: 5
_audit_creation_date              2025-03-05
_audit_creation_method            'MOFbuilder_1.0'
_symmetry_space_group_name_H-M    'P1'
_symmetry_Int_Tables_number       1
_symmetry_cell_setting            triclinic
loop_
_symmetry_equiv_pos_as_xyz
  x,y,z
_cell_length_a                    19.395
_cell_length_b                    19.395
_cell_length_c                    33.348
_cell_angle_alpha                 90.0
_cell_angle_beta                  90.0
_cell_angle_gamma                 90.0
loop_
_atom_site_label
_atom_site_type_symbol
_atom_site_fract_x
_atom_site_fract_y
_atom_site_fract_z
V1    V   0.05158  0.30539  0.89237
V2    V   0.19461  0.55158  0.14237
V3    V   0.30539  0.05158  0.10763
V4    V   0.44842  0.80539  0.35763
V5    V   0.55158  0.19461  0.85763
V6    V   0.69461  0.94842  0.60763
V7    V   0.80539  0.44842  0.64237
V8    V   0.94842  0.69461  0.39237
E1    E   0.07151  0.62310  0.26737
E2    E   0.12310  0.42849  0.01737
E3    E   0.17849  0.17849  0.00000
E4    E   0.19842  0.75000  0.37500
E5    E   0.25000  0.30158  0.12500
E6    E   0.25000  0.80158  0.12500
E7    E   0.30158  0.25000  0.87500
E8    E   0.32151  0.67849  0.25000
E9    E   0.37690  0.92849  0.23263
E10   E   0.42849  0.12310  0.98263
E11   E   0.57151  0.87690  0.48263
E12   E   0.62310  0.07151  0.73263
E13   E   0.67849  0.32151  0.75000
E14   E   0.69842  0.75000  0.37500
E15   E   0.75000  0.19842  0.62500
E16   E   0.75000  0.69842  0.62500
E17   E   0.80158  0.25000  0.87500
E18   E   0.82151  0.82151  0.50000
E19   E   0.87690  0.57151  0.51737
E20   E   0.92849  0.37690  0.76737
loop_
