data_yfj_I4122  hall_number: 375, V_con: 5
_audit_creation_date              2025-03-05
_audit_creation_method            'MOFbuilder_1.0'
_symmetry_space_group_name_H-M    'P1'
_symmetry_Int_Tables_number       1
_symmetry_cell_setting            triclinic
loop_
_symmetry_equiv_pos_as_xyz
  x,y,z
_cell_length_a                    29.762900000000002
_cell_length_b                    29.762900000000002
_cell_length_c                    23.823
_cell_angle_alpha                 90.0
_cell_angle_beta                  90.0
_cell_angle_gamma                 90.0
loop_
_atom_site_label
_atom_site_type_symbol
_atom_site_fract_x
_atom_site_fract_y
_atom_site_fract_z
V1    V   0.09514  0.13846  0.29364
V2    V   0.09514  0.36154  0.95636
V3    V   0.13846  0.09514  0.70636
V4    V   0.13846  0.40486  0.54364
V5    V   0.36154  0.09514  0.04364
V6    V   0.36154  0.40486  0.20636
V7    V   0.40486  0.13846  0.45636
V8    V   0.40486  0.36154  0.79364
V9    V   0.59514  0.63846  0.79364
V10   V   0.59514  0.86154  0.45636
V11   V   0.63846  0.59514  0.20636
V12   V   0.63846  0.90486  0.04364
V13   V   0.86154  0.59514  0.54364
V14   V   0.86154  0.90486  0.70636
V15   V   0.90486  0.63846  0.95636
V16   V   0.90486  0.86154  0.29364
E1    E   0.00000  0.00000  0.29364
E2    E   0.00000  0.00000  0.70636
E3    E   0.00000  0.50000  0.54364
E4    E   0.00000  0.50000  0.95636
E5    E   0.11680  0.11680  0.50000
E6    E   0.11680  0.22834  0.83136
E7    E   0.11680  0.27166  0.41864
E8    E   0.11680  0.38320  0.75000
E9    E   0.13846  0.25000  0.62500
E10   E   0.22834  0.11680  0.16864
E11   E   0.22834  0.38320  0.08136
E12   E   0.25000  0.13846  0.37500
E13   E   0.25000  0.36154  0.87500
E14   E   0.27166  0.11680  0.58136
E15   E   0.27166  0.38320  0.66864
E16   E   0.36154  0.25000  0.12500
E17   E   0.38320  0.11680  0.25000
E18   E   0.38320  0.22834  0.91864
E19   E   0.38320  0.27166  0.33136
E20   E   0.38320  0.38320  0.00000
E21   E   0.50000  0.00000  0.04364
E22   E   0.50000  0.00000  0.45636
E23   E   0.50000  0.50000  0.20636
E24   E   0.50000  0.50000  0.79364
E25   E   0.61680  0.61680  0.00000
E26   E   0.61680  0.72834  0.33136
E27   E   0.61680  0.77166  0.91864
E28   E   0.61680  0.88320  0.25000
E29   E   0.63846  0.75000  0.12500
E30   E   0.72834  0.61680  0.66864
E31   E   0.72834  0.88320  0.58136
E32   E   0.75000  0.63846  0.87500
E33   E   0.75000  0.86154  0.37500
E34   E   0.77166  0.61680  0.08136
E35   E   0.77166  0.88320  0.16864
E36   E   0.86154  0.75000  0.62500
E37   E   0.88320  0.61680  0.75000
E38   E   0.88320  0.72834  0.41864
E39   E   0.88320  0.77166  0.83136
E40   E   0.88320  0.88320  0.50000
loop_
