data_yfk_I-42d  hall_number: 399, V_con: 5
_audit_creation_date              2025-03-05
_audit_creation_method            'MOFbuilder_1.0'
_symmetry_space_group_name_H-M    'P1'
_symmetry_Int_Tables_number       1
_symmetry_cell_setting            triclinic
loop_
_symmetry_equiv_pos_as_xyz
  x,y,z
_cell_length_a                    30.7428
_cell_length_b                    30.7428
_cell_length_c                    18.782799999999998
_cell_angle_alpha                 90.0
_cell_angle_beta                  90.0
_cell_angle_gamma                 90.0
loop_
_atom_site_label
_atom_site_type_symbol
_atom_site_fract_x
_atom_site_fract_y
_atom_site_fract_z
V1    V   0.09202  0.13411  0.31177
V2    V   0.09202  0.36589  0.93823
V3    V   0.13411  0.59202  0.56177
V4    V   0.13411  0.90798  0.68823
V5    V   0.36589  0.59202  0.18823
V6    V   0.36589  0.90798  0.06177
V7    V   0.40798  0.13411  0.43823
V8    V   0.40798  0.36589  0.81177
V9    V   0.59202  0.63411  0.81177
V10   V   0.59202  0.86589  0.43823
V11   V   0.63411  0.09202  0.06177
V12   V   0.63411  0.40798  0.18823
V13   V   0.86589  0.09202  0.68823
V14   V   0.86589  0.40798  0.56177
V15   V   0.90798  0.63411  0.93823
V16   V   0.90798  0.86589  0.31177
E1    E   0.00000  0.00000  0.31177
E2    E   0.00000  0.00000  0.68823
E3    E   0.00000  0.50000  0.56177
E4    E   0.00000  0.50000  0.93823
E5    E   0.02105  0.61306  0.75000
E6    E   0.02105  0.88694  0.50000
E7    E   0.09202  0.25000  0.12500
E8    E   0.11306  0.02105  0.50000
E9    E   0.11306  0.47895  0.75000
E10   E   0.13411  0.75000  0.62500
E11   E   0.25000  0.13411  0.37500
E12   E   0.25000  0.36589  0.87500
E13   E   0.25000  0.59202  0.37500
E14   E   0.25000  0.90798  0.87500
E15   E   0.36589  0.75000  0.12500
E16   E   0.38694  0.02105  0.25000
E17   E   0.38694  0.47895  0.00000
E18   E   0.40798  0.25000  0.62500
E19   E   0.47895  0.61306  0.00000
E20   E   0.47895  0.88694  0.25000
E21   E   0.50000  0.00000  0.06177
E22   E   0.50000  0.00000  0.43823
E23   E   0.50000  0.50000  0.18823
E24   E   0.50000  0.50000  0.81177
E25   E   0.52105  0.11306  0.25000
E26   E   0.52105  0.38694  0.00000
E27   E   0.59202  0.75000  0.62500
E28   E   0.61306  0.52105  0.00000
E29   E   0.61306  0.97895  0.25000
E30   E   0.63411  0.25000  0.12500
E31   E   0.75000  0.09202  0.87500
E32   E   0.75000  0.40798  0.37500
E33   E   0.75000  0.63411  0.87500
E34   E   0.75000  0.86589  0.37500
E35   E   0.86589  0.25000  0.62500
E36   E   0.88694  0.52105  0.75000
E37   E   0.88694  0.97895  0.50000
E38   E   0.90798  0.75000  0.12500
E39   E   0.97895  0.11306  0.50000
E40   E   0.97895  0.38694  0.75000
loop_
