data_yfl_I-42d  hall_number: 399, V_con: 5
_audit_creation_date              2025-03-05
_audit_creation_method            'MOFbuilder_1.0'
_symmetry_space_group_name_H-M    'P1'
_symmetry_Int_Tables_number       1
_symmetry_cell_setting            triclinic
loop_
_symmetry_equiv_pos_as_xyz
  x,y,z
_cell_length_a                    18.955
_cell_length_b                    18.955
_cell_length_c                    59.389
_cell_angle_alpha                 90.0
_cell_angle_beta                  90.0
_cell_angle_gamma                 90.0
loop_
_atom_site_label
_atom_site_type_symbol
_atom_site_fract_x
_atom_site_fract_y
_atom_site_fract_z
V1    V   0.08415  0.25000  0.30953
V2    V   0.08415  0.25000  0.94047
V3    V   0.25000  0.58415  0.19047
V4    V   0.25000  0.58415  0.55953
V5    V   0.25000  0.91585  0.05953
V6    V   0.25000  0.91585  0.69047
V7    V   0.41585  0.25000  0.44047
V8    V   0.41585  0.25000  0.80953
V9    V   0.58415  0.75000  0.44047
V10   V   0.58415  0.75000  0.80953
V11   V   0.75000  0.08415  0.05953
V12   V   0.75000  0.08415  0.69047
V13   V   0.75000  0.41585  0.19047
V14   V   0.75000  0.41585  0.55953
V15   V   0.91585  0.75000  0.30953
V16   V   0.91585  0.75000  0.94047
E1    E   0.00000  0.00000  0.05953
E2    E   0.00000  0.00000  0.30953
E3    E   0.00000  0.00000  0.69047
E4    E   0.00000  0.00000  0.94047
E5    E   0.00000  0.50000  0.19047
E6    E   0.00000  0.50000  0.30953
E7    E   0.00000  0.50000  0.55953
E8    E   0.00000  0.50000  0.94047
E9    E   0.08292  0.66708  0.25000
E10   E   0.08292  0.83292  0.00000
E11   E   0.16708  0.08292  0.00000
E12   E   0.16708  0.41708  0.25000
E13   E   0.25000  0.25000  0.37500
E14   E   0.25000  0.25000  0.87500
E15   E   0.25000  0.75000  0.12500
E16   E   0.25000  0.75000  0.62500
E17   E   0.33292  0.08292  0.75000
E18   E   0.33292  0.41708  0.50000
E19   E   0.41708  0.66708  0.50000
E20   E   0.41708  0.83292  0.75000
E21   E   0.50000  0.00000  0.05953
E22   E   0.50000  0.00000  0.44047
E23   E   0.50000  0.00000  0.69047
E24   E   0.50000  0.00000  0.80953
E25   E   0.50000  0.50000  0.19047
E26   E   0.50000  0.50000  0.44047
E27   E   0.50000  0.50000  0.55953
E28   E   0.50000  0.50000  0.80953
E29   E   0.58292  0.16708  0.75000
E30   E   0.58292  0.33292  0.50000
E31   E   0.66708  0.58292  0.50000
E32   E   0.66708  0.91708  0.75000
E33   E   0.75000  0.25000  0.12500
E34   E   0.75000  0.25000  0.62500
E35   E   0.75000  0.75000  0.37500
E36   E   0.75000  0.75000  0.87500
E37   E   0.83292  0.58292  0.25000
E38   E   0.83292  0.91708  0.00000
E39   E   0.91708  0.16708  0.00000
E40   E   0.91708  0.33292  0.25000
loop_
