data_yfo_I41/acd:2  hall_number: 429, V_con: 5
_audit_creation_date              2025-03-05
_audit_creation_method            'MOFbuilder_1.0'
_symmetry_space_group_name_H-M    'P1'
_symmetry_Int_Tables_number       1
_symmetry_cell_setting            triclinic
loop_
_symmetry_equiv_pos_as_xyz
  x,y,z
_cell_length_a                    53.8
_cell_length_b                    53.8
_cell_length_c                    14.732700000000001
_cell_angle_alpha                 90.0
_cell_angle_beta                  90.0
_cell_angle_gamma                 90.0
loop_
_atom_site_label
_atom_site_type_symbol
_atom_site_fract_x
_atom_site_fract_y
_atom_site_fract_z
V1    V   0.06285  0.06825  0.98036
V2    V   0.06285  0.43175  0.48036
V3    V   0.06285  0.56825  0.01964
V4    V   0.06285  0.93175  0.51964
V5    V   0.18175  0.18715  0.26964
V6    V   0.18175  0.31285  0.76964
V7    V   0.18175  0.68715  0.73036
V8    V   0.18175  0.81285  0.23036
V9    V   0.31825  0.18715  0.73036
V10   V   0.31825  0.31285  0.23036
V11   V   0.31825  0.68715  0.26964
V12   V   0.31825  0.81285  0.76964
V13   V   0.43715  0.06825  0.01964
V14   V   0.43715  0.43175  0.51964
V15   V   0.43715  0.56825  0.98036
V16   V   0.43715  0.93175  0.48036
V17   V   0.56285  0.06825  0.51964
V18   V   0.56285  0.43175  0.01964
V19   V   0.56285  0.56825  0.48036
V20   V   0.56285  0.93175  0.98036
V21   V   0.68175  0.18715  0.23036
V22   V   0.68175  0.31285  0.73036
V23   V   0.68175  0.68715  0.76964
V24   V   0.68175  0.81285  0.26964
V25   V   0.81825  0.18715  0.76964
V26   V   0.81825  0.31285  0.26964
V27   V   0.81825  0.68715  0.23036
V28   V   0.81825  0.81285  0.73036
V29   V   0.93715  0.06825  0.48036
V30   V   0.93715  0.43175  0.98036
V31   V   0.93715  0.56825  0.51964
V32   V   0.93715  0.93175  0.01964
E1    E   0.00000  0.00000  0.00000
E2    E   0.00000  0.00000  0.50000
E3    E   0.00000  0.06825  0.23036
E4    E   0.00000  0.06825  0.73036
E5    E   0.00000  0.43175  0.23036
E6    E   0.00000  0.43175  0.73036
E7    E   0.00000  0.50000  0.00000
E8    E   0.00000  0.50000  0.50000
E9    E   0.00000  0.56825  0.26964
E10   E   0.00000  0.56825  0.76964
E11   E   0.00000  0.93175  0.26964
E12   E   0.00000  0.93175  0.76964
E13   E   0.06285  0.00000  0.75000
E14   E   0.06285  0.50000  0.25000
E15   E   0.12230  0.12770  0.12500
E16   E   0.12230  0.37230  0.62500
E17   E   0.12230  0.62770  0.87500
E18   E   0.12230  0.87230  0.37500
E19   E   0.12230  0.12770  0.12500
E20   E   0.12230  0.37230  0.62500
E21   E   0.12230  0.62770  0.87500
E22   E   0.12230  0.87230  0.37500
E23   E   0.18175  0.25000  0.01964
E24   E   0.18175  0.25000  0.51964
E25   E   0.18175  0.75000  0.48036
E26   E   0.18175  0.75000  0.98036
E27   E   0.25000  0.18715  0.50000
E28   E   0.25000  0.25000  0.25000
E29   E   0.25000  0.25000  0.75000
E30   E   0.25000  0.31285  0.00000
E31   E   0.25000  0.68715  0.50000
E32   E   0.25000  0.75000  0.25000
E33   E   0.25000  0.75000  0.75000
E34   E   0.25000  0.81285  0.00000
E35   E   0.31825  0.25000  0.48036
E36   E   0.31825  0.25000  0.98036
E37   E   0.31825  0.75000  0.01964
E38   E   0.31825  0.75000  0.51964
E39   E   0.37770  0.12770  0.87500
E40   E   0.37770  0.37230  0.37500
E41   E   0.37770  0.62770  0.12500
E42   E   0.37770  0.87230  0.62500
E43   E   0.37770  0.12770  0.87500
E44   E   0.37770  0.37230  0.37500
E45   E   0.37770  0.62770  0.12500
E46   E   0.37770  0.87230  0.62500
E47   E   0.43715  0.00000  0.25000
E48   E   0.43715  0.50000  0.75000
E49   E   0.50000  0.00000  0.00000
E50   E   0.50000  0.00000  0.50000
E51   E   0.50000  0.06825  0.26964
E52   E   0.50000  0.06825  0.76964
E53   E   0.50000  0.43175  0.26964
E54   E   0.50000  0.43175  0.76964
E55   E   0.50000  0.50000  0.00000
E56   E   0.50000  0.50000  0.50000
E57   E   0.50000  0.56825  0.23036
E58   E   0.50000  0.56825  0.73036
E59   E   0.50000  0.93175  0.23036
E60   E   0.50000  0.93175  0.73036
E61   E   0.56285  0.00000  0.75000
E62   E   0.56285  0.50000  0.25000
E63   E   0.62230  0.12770  0.37500
E64   E   0.62230  0.12770  0.37500
E65   E   0.62230  0.37230  0.87500
E66   E   0.62230  0.37230  0.87500
E67   E   0.62230  0.62770  0.62500
E68   E   0.62230  0.87230  0.12500
E69   E   0.68175  0.25000  0.48036
E70   E   0.68175  0.25000  0.98036
E71   E   0.68175  0.75000  0.01964
E72   E   0.68175  0.75000  0.51964
E73   E   0.75000  0.18715  0.00000
E74   E   0.75000  0.25000  0.25000
E75   E   0.75000  0.25000  0.75000
E76   E   0.75000  0.31285  0.50000
E77   E   0.75000  0.68715  0.00000
E78   E   0.75000  0.75000  0.25000
E79   E   0.75000  0.75000  0.75000
E80   E   0.75000  0.81285  0.50000
E81   E   0.81825  0.25000  0.01964
E82   E   0.81825  0.25000  0.51964
E83   E   0.81825  0.75000  0.48036
E84   E   0.81825  0.75000  0.98036
E85   E   0.87770  0.12770  0.62500
E86   E   0.87770  0.12770  0.62500
E87   E   0.87770  0.37230  0.12500
E88   E   0.87770  0.37230  0.12500
E89   E   0.87770  0.62770  0.37500
E90   E   0.87770  0.87230  0.87500
E91   E   0.93715  0.00000  0.25000
E92   E   0.93715  0.50000  0.75000
loop_
