data_yfz_P42/nnm:2  hall_number: 417, V_con: 5
_audit_creation_date              2025-03-05
_audit_creation_method            'MOFbuilder_1.0'
_symmetry_space_group_name_H-M    'P1'
_symmetry_Int_Tables_number       1
_symmetry_cell_setting            triclinic
loop_
_symmetry_equiv_pos_as_xyz
  x,y,z
_cell_length_a                    33.0877
_cell_length_b                    33.0877
_cell_length_c                    10.0
_cell_angle_alpha                 90.0
_cell_angle_beta                  90.0
_cell_angle_gamma                 90.0
loop_
_atom_site_label
_atom_site_type_symbol
_atom_site_fract_x
_atom_site_fract_y
_atom_site_fract_z
V1    V   0.10204  0.60204  0.64835
V2    V   0.10204  0.89796  0.85165
V3    V   0.10204  0.60204  0.64835
V4    V   0.10204  0.89796  0.85165
V5    V   0.39796  0.60204  0.85165
V6    V   0.39796  0.89796  0.64835
V7    V   0.60204  0.10204  0.35165
V8    V   0.60204  0.10204  0.35165
V9    V   0.60204  0.39796  0.14835
V10   V   0.89796  0.10204  0.14835
V11   V   0.89796  0.10204  0.14835
V12   V   0.89796  0.39796  0.35165
E1    E   0.00000  0.00000  0.00000
E2    E   0.00000  0.50000  0.50000
E3    E   0.10204  0.60204  0.14835
E4    E   0.10204  0.89796  0.35165
E5    E   0.10204  0.60204  0.14835
E6    E   0.10204  0.75000  0.75000
E7    E   0.10204  0.89796  0.35165
E8    E   0.25000  0.60204  0.75000
E9    E   0.25000  0.89796  0.75000
E10   E   0.39796  0.60204  0.35165
E11   E   0.39796  0.75000  0.75000
E12   E   0.39796  0.89796  0.14835
E13   E   0.50000  0.00000  0.50000
E14   E   0.50000  0.50000  0.00000
E15   E   0.60204  0.10204  0.85165
E16   E   0.60204  0.10204  0.85165
E17   E   0.60204  0.25000  0.25000
E18   E   0.60204  0.39796  0.64835
E19   E   0.75000  0.10204  0.25000
E20   E   0.75000  0.39796  0.25000
E21   E   0.89796  0.10204  0.64835
E22   E   0.89796  0.10204  0.64835
E23   E   0.89796  0.25000  0.25000
E24   E   0.89796  0.39796  0.85165
loop_
