data_yug_I12/m1  hall_number: 71, V_con: 4, EC_con: 4
_audit_creation_date              2025-03-05
_audit_creation_method            'MOFbuilder_1.0'
_symmetry_space_group_name_H-M    'P1'
_symmetry_Int_Tables_number       1
_symmetry_cell_setting            triclinic
loop_
_symmetry_equiv_pos_as_xyz
  x,y,z
_cell_length_a                    21.5795
_cell_length_b                    44.8217
_cell_length_c                    31.722
_cell_angle_alpha                 90.0
_cell_angle_beta                  106.1577
_cell_angle_gamma                 90.0
loop_
_atom_site_label
_atom_site_type_symbol
_atom_site_fract_x
_atom_site_fract_y
_atom_site_fract_z
V1    V   0.01906  0.25018  0.33927
V2    V   0.01906  0.74982  0.66073
V3    V   0.48094  0.24982  0.16073
V4    V   0.48094  0.75018  0.83927
V5    V   0.51906  0.24982  0.16073
V6    V   0.51906  0.75018  0.83927
V7    V   0.98094  0.25018  0.33927
V8    V   0.98094  0.74982  0.66073
EC1    EC   0.15174  0.11155  0.15126
EC2    EC   0.15174  0.88845  0.84874
EC3    EC   0.34826  0.38845  0.34874
EC4    EC   0.34826  0.61155  0.65126
EC5    EC   0.65174  0.38845  0.34874
EC6    EC   0.65174  0.61155  0.65126
EC7    EC   0.84826  0.11155  0.15126
EC8    EC   0.84826  0.88845  0.84874
E1    E   0.00000  0.11155  0.00000
E2    E   0.00000  0.25018  0.50000
E3    E   0.00000  0.74982  0.50000
E4    E   0.00000  0.88845  0.00000
E5    E   0.06634  0.18087  0.24526
E6    E   0.06634  0.81913  0.75474
E7    E   0.15174  0.00000  0.15126
E8    E   0.15174  0.00000  0.84874
E9    E   0.16460  0.31932  0.34400
E10   E   0.16460  0.68068  0.65600
E11   E   0.25000  0.25000  0.25000
E12   E   0.25000  0.75000  0.75000
E13   E   0.33540  0.18068  0.15600
E14   E   0.33540  0.81932  0.84400
E15   E   0.34826  0.50000  0.34874
E16   E   0.34826  0.50000  0.65126
E17   E   0.43366  0.31913  0.25474
E18   E   0.43366  0.68087  0.74526
E19   E   0.50000  0.24982  0.00000
E20   E   0.50000  0.38845  0.50000
E21   E   0.50000  0.61155  0.50000
E22   E   0.50000  0.75018  0.00000
E23   E   0.56634  0.31913  0.25474
E24   E   0.56634  0.68087  0.74526
E25   E   0.65174  0.50000  0.34874
E26   E   0.65174  0.50000  0.65126
E27   E   0.66460  0.18068  0.15600
E28   E   0.66460  0.81932  0.84400
E29   E   0.75000  0.25000  0.25000
E30   E   0.75000  0.75000  0.75000
E31   E   0.83540  0.31932  0.34400
E32   E   0.83540  0.68068  0.65600
E33   E   0.84826  0.00000  0.15126
E34   E   0.84826  0.00000  0.84874
E35   E   0.93366  0.18087  0.24526
E36   E   0.93366  0.81913  0.75474
loop_
