data_yzh_Fddd:2  hall_number: 336, V_con: 7, EC_con: 7
_audit_creation_date              2025-03-05
_audit_creation_method            'MOFbuilder_1.0'
_symmetry_space_group_name_H-M    'P1'
_symmetry_Int_Tables_number       1
_symmetry_cell_setting            triclinic
loop_
_symmetry_equiv_pos_as_xyz
  x,y,z
_cell_length_a                    40.4791
_cell_length_b                    15.081500000000002
_cell_length_c                    42.6641
_cell_angle_alpha                 90.0
_cell_angle_beta                  90.0
_cell_angle_gamma                 90.0
loop_
_atom_site_label
_atom_site_type_symbol
_atom_site_fract_x
_atom_site_fract_y
_atom_site_fract_z
V1    V   0.04155  0.35224  0.50001
V2    V   0.04155  0.39776  0.24999
V3    V   0.04155  0.85224  0.00001
V4    V   0.04155  0.89776  0.74999
V5    V   0.20845  0.35224  0.74999
V6    V   0.20845  0.39776  0.00001
V7    V   0.20845  0.85224  0.24999
V8    V   0.20845  0.89776  0.50001
V9    V   0.29155  0.10224  0.99999
V10   V   0.29155  0.14776  0.25001
V11   V   0.29155  0.60224  0.49999
V12   V   0.29155  0.64776  0.75001
V13   V   0.45845  0.10224  0.75001
V14   V   0.45845  0.14776  0.49999
V15   V   0.45845  0.60224  0.25001
V16   V   0.45845  0.64776  0.99999
V17   V   0.54155  0.35224  0.00001
V18   V   0.54155  0.39776  0.74999
V19   V   0.54155  0.85224  0.50001
V20   V   0.54155  0.89776  0.24999
V21   V   0.70845  0.35224  0.24999
V22   V   0.70845  0.39776  0.50001
V23   V   0.70845  0.85224  0.74999
V24   V   0.70845  0.89776  0.00001
V25   V   0.79155  0.10224  0.49999
V26   V   0.79155  0.14776  0.75001
V27   V   0.79155  0.60224  0.99999
V28   V   0.79155  0.64776  0.25001
V29   V   0.95845  0.10224  0.25001
V30   V   0.95845  0.14776  0.99999
V31   V   0.95845  0.60224  0.75001
V32   V   0.95845  0.64776  0.49999
EC1    EC   0.00509  0.12500  0.62500
EC2    EC   0.00509  0.62500  0.12500
EC3    EC   0.24491  0.12500  0.62500
EC4    EC   0.24491  0.62500  0.12500
EC5    EC   0.25509  0.37500  0.37500
EC6    EC   0.25509  0.87500  0.87500
EC7    EC   0.49491  0.37500  0.37500
EC8    EC   0.49491  0.87500  0.87500
EC9    EC   0.50509  0.12500  0.12500
EC10   EC   0.50509  0.62500  0.62500
EC11   EC   0.74491  0.12500  0.12500
EC12   EC   0.74491  0.62500  0.62500
EC13   EC   0.75509  0.37500  0.87500
EC14   EC   0.75509  0.87500  0.37500
EC15   EC   0.99491  0.37500  0.87500
EC16   EC   0.99491  0.87500  0.37500
E1    E   0.00000  0.00000  0.50000
E2    E   0.00000  0.25000  0.75000
E3    E   0.00000  0.50000  0.00000
E4    E   0.00000  0.75000  0.25000
E5    E   0.01823  0.11362  0.43750
E6    E   0.01823  0.11362  0.93750
E7    E   0.01823  0.13638  0.81250
E8    E   0.01823  0.13638  0.31250
E9    E   0.01823  0.61362  0.43750
E10   E   0.01823  0.61362  0.93750
E11   E   0.01823  0.63638  0.31250
E12   E   0.01823  0.63638  0.81250
E13   E   0.04155  0.37500  0.37500
E14   E   0.04155  0.87500  0.87500
E15   E   0.10168  0.36362  0.81250
E16   E   0.10168  0.38638  0.93750
E17   E   0.10168  0.86362  0.31250
E18   E   0.10168  0.88638  0.43750
E19   E   0.12500  0.12500  0.00001
E20   E   0.12500  0.12500  0.24999
E21   E   0.12500  0.12500  0.50001
E22   E   0.12500  0.12500  0.62500
E23   E   0.12500  0.12500  0.74999
E24   E   0.12500  0.62500  0.00001
E25   E   0.12500  0.62500  0.12500
E26   E   0.12500  0.62500  0.24999
E27   E   0.12500  0.62500  0.50001
E28   E   0.12500  0.62500  0.74999
E29   E   0.14832  0.36362  0.43750
E30   E   0.14832  0.38638  0.31250
E31   E   0.14832  0.86362  0.93750
E32   E   0.14832  0.88638  0.81250
E33   E   0.20845  0.37500  0.87500
E34   E   0.20845  0.87500  0.37500
E35   E   0.23177  0.11362  0.31250
E36   E   0.23177  0.11362  0.81250
E37   E   0.23177  0.13638  0.43750
E38   E   0.23177  0.13638  0.93750
E39   E   0.23177  0.61362  0.31250
E40   E   0.23177  0.61362  0.81250
E41   E   0.23177  0.63638  0.43750
E42   E   0.23177  0.63638  0.93750
E43   E   0.25000  0.00000  0.75000
E44   E   0.25000  0.25000  0.50000
E45   E   0.25000  0.50000  0.25000
E46   E   0.25000  0.75000  0.00000
E47   E   0.26823  0.36362  0.06250
E48   E   0.26823  0.36362  0.56250
E49   E   0.26823  0.38638  0.18750
E50   E   0.26823  0.38638  0.68750
E51   E   0.26823  0.86362  0.06250
E52   E   0.26823  0.86362  0.56250
E53   E   0.26823  0.88638  0.18750
E54   E   0.26823  0.88638  0.68750
E55   E   0.29155  0.12500  0.12500
E56   E   0.29155  0.62500  0.62500
E57   E   0.35168  0.11362  0.68750
E58   E   0.35168  0.13638  0.56250
E59   E   0.35168  0.61362  0.18750
E60   E   0.35168  0.63638  0.06250
E61   E   0.37500  0.37500  0.25001
E62   E   0.37500  0.37500  0.37500
E63   E   0.37500  0.37500  0.49999
E64   E   0.37500  0.37500  0.75001
E65   E   0.37500  0.37500  0.99999
E66   E   0.37500  0.87500  0.25001
E67   E   0.37500  0.87500  0.49999
E68   E   0.37500  0.87500  0.75001
E69   E   0.37500  0.87500  0.87500
E70   E   0.37500  0.87500  0.99999
E71   E   0.39832  0.11362  0.06250
E72   E   0.39832  0.13638  0.18750
E73   E   0.39832  0.61362  0.56250
E74   E   0.39832  0.63638  0.68750
E75   E   0.45845  0.12500  0.62500
E76   E   0.45845  0.62500  0.12500
E77   E   0.48177  0.36362  0.18750
E78   E   0.48177  0.36362  0.68750
E79   E   0.48177  0.38638  0.06250
E80   E   0.48177  0.38638  0.56250
E81   E   0.48177  0.86362  0.18750
E82   E   0.48177  0.86362  0.68750
E83   E   0.48177  0.88638  0.06250
E84   E   0.48177  0.88638  0.56250
E85   E   0.50000  0.00000  0.00000
E86   E   0.50000  0.25000  0.25000
E87   E   0.50000  0.50000  0.50000
E88   E   0.50000  0.75000  0.75000
E89   E   0.51823  0.11362  0.43750
E90   E   0.51823  0.11362  0.93750
E91   E   0.51823  0.13638  0.31250
E92   E   0.51823  0.13638  0.81250
E93   E   0.51823  0.61362  0.43750
E94   E   0.51823  0.61362  0.93750
E95   E   0.51823  0.63638  0.31250
E96   E   0.51823  0.63638  0.81250
E97   E   0.54155  0.37500  0.87500
E98   E   0.54155  0.87500  0.37500
E99   E   0.60168  0.36362  0.31250
E100  E   0.60168  0.38638  0.43750
E101  E   0.60168  0.86362  0.81250
E102  E   0.60168  0.88638  0.93750
E103  E   0.62500  0.12500  0.00001
E104  E   0.62500  0.12500  0.12500
E105  E   0.62500  0.12500  0.24999
E106  E   0.62500  0.12500  0.50001
E107  E   0.62500  0.12500  0.74999
E108  E   0.62500  0.62500  0.00001
E109  E   0.62500  0.62500  0.24999
E110  E   0.62500  0.62500  0.50001
E111  E   0.62500  0.62500  0.62500
E112  E   0.62500  0.62500  0.74999
E113  E   0.64832  0.36362  0.93750
E114  E   0.64832  0.38638  0.81250
E115  E   0.64832  0.86362  0.43750
E116  E   0.64832  0.88638  0.31250
E117  E   0.70845  0.37500  0.37500
E118  E   0.70845  0.87500  0.87500
E119  E   0.73177  0.11362  0.31250
E120  E   0.73177  0.11362  0.81250
E121  E   0.73177  0.13638  0.93750
E122  E   0.73177  0.13638  0.43750
E123  E   0.73177  0.61362  0.31250
E124  E   0.73177  0.61362  0.81250
E125  E   0.73177  0.63638  0.43750
E126  E   0.73177  0.63638  0.93750
E127  E   0.75000  0.00000  0.25000
E128  E   0.75000  0.25000  0.00000
E129  E   0.75000  0.50000  0.75000
E130  E   0.75000  0.75000  0.50000
E131  E   0.76823  0.36362  0.06250
E132  E   0.76823  0.36362  0.56250
E133  E   0.76823  0.38638  0.18750
E134  E   0.76823  0.38638  0.68750
E135  E   0.76823  0.86362  0.06250
E136  E   0.76823  0.86362  0.56250
E137  E   0.76823  0.88638  0.18750
E138  E   0.76823  0.88638  0.68750
E139  E   0.79155  0.12500  0.62500
E140  E   0.79155  0.62500  0.12500
E141  E   0.85168  0.11362  0.18750
E142  E   0.85168  0.13638  0.06250
E143  E   0.85168  0.61362  0.68750
E144  E   0.85168  0.63638  0.56250
E145  E   0.87500  0.37500  0.25001
E146  E   0.87500  0.37500  0.49999
E147  E   0.87500  0.37500  0.75001
E148  E   0.87500  0.37500  0.87500
E149  E   0.87500  0.37500  0.99999
E150  E   0.87500  0.87500  0.25001
E151  E   0.87500  0.87500  0.37500
E152  E   0.87500  0.87500  0.49999
E153  E   0.87500  0.87500  0.75001
E154  E   0.87500  0.87500  0.99999
E155  E   0.89832  0.11362  0.56250
E156  E   0.89832  0.13638  0.68750
E157  E   0.89832  0.61362  0.06250
E158  E   0.89832  0.63638  0.18750
E159  E   0.95845  0.12500  0.12500
E160  E   0.95845  0.62500  0.62500
E161  E   0.98177  0.36362  0.18750
E162  E   0.98177  0.36362  0.68750
E163  E   0.98177  0.38638  0.06250
E164  E   0.98177  0.38638  0.56250
E165  E   0.98177  0.86362  0.18750
E166  E   0.98177  0.86362  0.68750
E167  E   0.98177  0.88638  0.06250
E168  E   0.98177  0.88638  0.56250
loop_
