data_zba_I-42d  hall_number: 399, V_con: 6, EC_con: 4
_audit_creation_date              2025-03-05
_audit_creation_method            'MOFbuilder_1.0'
_symmetry_space_group_name_H-M    'P1'
_symmetry_Int_Tables_number       1
_symmetry_cell_setting            triclinic
loop_
_symmetry_equiv_pos_as_xyz
  x,y,z
_cell_length_a                    41.46810000000001
_cell_length_b                    41.46810000000001
_cell_length_c                    25.3044
_cell_angle_alpha                 90.0
_cell_angle_beta                  90.0
_cell_angle_gamma                 90.0
loop_
_atom_site_label
_atom_site_type_symbol
_atom_site_fract_x
_atom_site_fract_y
_atom_site_fract_z
V1    V   0.13474  0.22871  0.31914
V2    V   0.13474  0.27129  0.93086
V3    V   0.22871  0.63474  0.56914
V4    V   0.22871  0.86526  0.68086
V5    V   0.27129  0.63474  0.18086
V6    V   0.27129  0.86526  0.06914
V7    V   0.36526  0.22871  0.43086
V8    V   0.36526  0.27129  0.81914
V9    V   0.63474  0.72871  0.81914
V10   V   0.63474  0.77129  0.43086
V11   V   0.72871  0.13474  0.06914
V12   V   0.72871  0.36526  0.18086
V13   V   0.77129  0.13474  0.68086
V14   V   0.77129  0.36526  0.56914
V15   V   0.86526  0.72871  0.93086
V16   V   0.86526  0.77129  0.31914
EC1    EC   0.10682  0.71686  0.92222
EC2    EC   0.10682  0.78314  0.32778
EC3    EC   0.21686  0.10682  0.67222
EC4    EC   0.21686  0.39318  0.57778
EC5    EC   0.28314  0.10682  0.07778
EC6    EC   0.28314  0.39318  0.17222
EC7    EC   0.39318  0.71686  0.82778
EC8    EC   0.39318  0.78314  0.42222
EC9    EC   0.60682  0.21686  0.42222
EC10   EC   0.60682  0.28314  0.82778
EC11   EC   0.71686  0.60682  0.17222
EC12   EC   0.71686  0.89318  0.07778
EC13   EC   0.78314  0.60682  0.57778
EC14   EC   0.78314  0.89318  0.67222
EC15   EC   0.89318  0.21686  0.32778
EC16   EC   0.89318  0.28314  0.92222
E1    E   0.01396  0.22278  0.32346
E2    E   0.01396  0.27722  0.92654
E3    E   0.13474  0.25000  0.12500
E4    E   0.16776  0.70894  0.44846
E5    E   0.16776  0.79106  0.80154
E6    E   0.17580  0.18906  0.80154
E7    E   0.17580  0.31094  0.44846
E8    E   0.18906  0.67580  0.05154
E9    E   0.18906  0.70894  0.25432
E10   E   0.18906  0.79106  0.99568
E11   E   0.18906  0.82420  0.19846
E12   E   0.20894  0.16776  0.19846
E13   E   0.20894  0.18906  0.00432
E14   E   0.20894  0.31094  0.24568
E15   E   0.20894  0.33224  0.05154
E16   E   0.22278  0.51396  0.57346
E17   E   0.22278  0.98604  0.67654
E18   E   0.22871  0.75000  0.62500
E19   E   0.25000  0.22871  0.37500
E20   E   0.25000  0.27129  0.87500
E21   E   0.25000  0.63474  0.37500
E22   E   0.25000  0.86526  0.87500
E23   E   0.27129  0.75000  0.12500
E24   E   0.27722  0.51396  0.17654
E25   E   0.27722  0.98604  0.07346
E26   E   0.29106  0.16776  0.55154
E27   E   0.29106  0.18906  0.74568
E28   E   0.29106  0.31094  0.50432
E29   E   0.29106  0.33224  0.69846
E30   E   0.31094  0.67580  0.69846
E31   E   0.31094  0.70894  0.49568
E32   E   0.31094  0.79106  0.75432
E33   E   0.31094  0.82420  0.55154
E34   E   0.32420  0.18906  0.94846
E35   E   0.32420  0.31094  0.30154
E36   E   0.33224  0.70894  0.30154
E37   E   0.33224  0.79106  0.94846
E38   E   0.36526  0.25000  0.62500
E39   E   0.48604  0.22278  0.42654
E40   E   0.48604  0.27722  0.82346
E41   E   0.51396  0.72278  0.82346
E42   E   0.51396  0.77722  0.42654
E43   E   0.63474  0.75000  0.62500
E44   E   0.66776  0.20894  0.94846
E45   E   0.66776  0.29106  0.30154
E46   E   0.67580  0.68906  0.30154
E47   E   0.67580  0.81094  0.94846
E48   E   0.68906  0.17580  0.55154
E49   E   0.68906  0.20894  0.75432
E50   E   0.68906  0.29106  0.49568
E51   E   0.68906  0.32420  0.69846
E52   E   0.70894  0.66776  0.69846
E53   E   0.70894  0.68906  0.50432
E54   E   0.70894  0.81094  0.74568
E55   E   0.70894  0.83224  0.55154
E56   E   0.72278  0.01396  0.07346
E57   E   0.72278  0.48604  0.17654
E58   E   0.72871  0.25000  0.12500
E59   E   0.75000  0.13474  0.87500
E60   E   0.75000  0.36526  0.37500
E61   E   0.75000  0.72871  0.87500
E62   E   0.75000  0.77129  0.37500
E63   E   0.77129  0.25000  0.62500
E64   E   0.77722  0.01396  0.67654
E65   E   0.77722  0.48604  0.57346
E66   E   0.79106  0.66776  0.05154
E67   E   0.79106  0.68906  0.24568
E68   E   0.79106  0.81094  0.00432
E69   E   0.79106  0.83224  0.19846
E70   E   0.81094  0.17580  0.19846
E71   E   0.81094  0.20894  0.99568
E72   E   0.81094  0.29106  0.25432
E73   E   0.81094  0.32420  0.05154
E74   E   0.82420  0.68906  0.44846
E75   E   0.82420  0.81094  0.80154
E76   E   0.83224  0.20894  0.80154
E77   E   0.83224  0.29106  0.44846
E78   E   0.86526  0.75000  0.12500
E79   E   0.98604  0.72278  0.92654
E80   E   0.98604  0.77722  0.32346
loop_
