data_zbl_Fmmm  hall_number: 334, V_con: 6, EC_con: 5
_audit_creation_date              2025-03-05
_audit_creation_method            'MOFbuilder_1.0'
_symmetry_space_group_name_H-M    'P1'
_symmetry_Int_Tables_number       1
_symmetry_cell_setting            triclinic
loop_
_symmetry_equiv_pos_as_xyz
  x,y,z
_cell_length_a                    40.000099999999996
_cell_length_b                    20.000300000000003
_cell_length_c                    48.2927
_cell_angle_alpha                 90.0
_cell_angle_beta                  90.0
_cell_angle_gamma                 90.0
loop_
_atom_site_label
_atom_site_type_symbol
_atom_site_fract_x
_atom_site_fract_y
_atom_site_fract_z
V1    V   0.12498  0.25000  0.25000
V2    V   0.12498  0.25000  0.75000
V3    V   0.12498  0.75000  0.25000
V4    V   0.12498  0.75000  0.75000
V5    V   0.37502  0.25000  0.25000
V6    V   0.37502  0.25000  0.75000
V7    V   0.37502  0.75000  0.25000
V8    V   0.37502  0.75000  0.75000
V9    V   0.62498  0.25000  0.25000
V10   V   0.62498  0.25000  0.75000
V11   V   0.62498  0.75000  0.25000
V12   V   0.62498  0.75000  0.75000
V13   V   0.87502  0.25000  0.25000
V14   V   0.87502  0.25000  0.75000
V15   V   0.87502  0.75000  0.25000
V16   V   0.87502  0.75000  0.75000
EC1    EC   0.00000  0.00000  0.10359
EC2    EC   0.00000  0.00000  0.89641
EC3    EC   0.00000  0.50000  0.39641
EC4    EC   0.00000  0.50000  0.60359
EC5    EC   0.50000  0.00000  0.39641
EC6    EC   0.50000  0.00000  0.60359
EC7    EC   0.50000  0.50000  0.10359
EC8    EC   0.50000  0.50000  0.89641
E1    E   0.00000  0.00000  0.00000
E2    E   0.00000  0.25000  0.25000
E3    E   0.00000  0.25000  0.75000
E4    E   0.00000  0.50000  0.50000
E5    E   0.00000  0.75000  0.25000
E6    E   0.00000  0.75000  0.75000
E7    E   0.06249  0.12500  0.17679
E8    E   0.06249  0.12500  0.82321
E9    E   0.06249  0.37500  0.32321
E10   E   0.06249  0.37500  0.67679
E11   E   0.06249  0.62500  0.32321
E12   E   0.06249  0.62500  0.67679
E13   E   0.06249  0.87500  0.17679
E14   E   0.06249  0.87500  0.82321
E15   E   0.12498  0.00000  0.25000
E16   E   0.12498  0.00000  0.75000
E17   E   0.12498  0.50000  0.25000
E18   E   0.12498  0.50000  0.75000
E19   E   0.25000  0.25000  0.25000
E20   E   0.25000  0.25000  0.75000
E21   E   0.25000  0.75000  0.25000
E22   E   0.25000  0.75000  0.75000
E23   E   0.37502  0.00000  0.25000
E24   E   0.37502  0.00000  0.75000
E25   E   0.37502  0.50000  0.25000
E26   E   0.37502  0.50000  0.75000
E27   E   0.43751  0.12500  0.32321
E28   E   0.43751  0.12500  0.67679
E29   E   0.43751  0.37500  0.17679
E30   E   0.43751  0.37500  0.82321
E31   E   0.43751  0.62500  0.17679
E32   E   0.43751  0.62500  0.82321
E33   E   0.43751  0.87500  0.32321
E34   E   0.43751  0.87500  0.67679
E35   E   0.50000  0.00000  0.50000
E36   E   0.50000  0.25000  0.25000
E37   E   0.50000  0.25000  0.75000
E38   E   0.50000  0.50000  0.00000
E39   E   0.50000  0.75000  0.25000
E40   E   0.50000  0.75000  0.75000
E41   E   0.56249  0.12500  0.32321
E42   E   0.56249  0.12500  0.67679
E43   E   0.56249  0.37500  0.17679
E44   E   0.56249  0.37500  0.82321
E45   E   0.56249  0.62500  0.17679
E46   E   0.56249  0.62500  0.82321
E47   E   0.56249  0.87500  0.32321
E48   E   0.56249  0.87500  0.67679
E49   E   0.62498  0.00000  0.25000
E50   E   0.62498  0.00000  0.75000
E51   E   0.62498  0.50000  0.25000
E52   E   0.62498  0.50000  0.75000
E53   E   0.75000  0.25000  0.25000
E54   E   0.75000  0.25000  0.75000
E55   E   0.75000  0.75000  0.25000
E56   E   0.75000  0.75000  0.75000
E57   E   0.87502  0.00000  0.25000
E58   E   0.87502  0.00000  0.75000
E59   E   0.87502  0.50000  0.25000
E60   E   0.87502  0.50000  0.75000
E61   E   0.93751  0.12500  0.17679
E62   E   0.93751  0.12500  0.82321
E63   E   0.93751  0.37500  0.32321
E64   E   0.93751  0.37500  0.67679
E65   E   0.93751  0.62500  0.32321
E66   E   0.93751  0.62500  0.67679
E67   E   0.93751  0.87500  0.17679
E68   E   0.93751  0.87500  0.82321
loop_
