data_zcc_I4/mmm  hall_number: 424, V_con: 5, EC_con: 3
_audit_creation_date              2025-03-05
_audit_creation_method            'MOFbuilder_1.0'
_symmetry_space_group_name_H-M    'P1'
_symmetry_Int_Tables_number       1
_symmetry_cell_setting            triclinic
loop_
_symmetry_equiv_pos_as_xyz
  x,y,z
_cell_length_a                    60.5316
_cell_length_b                    60.5316
_cell_length_c                    10.0001
_cell_angle_alpha                 90.0
_cell_angle_beta                  90.0
_cell_angle_gamma                 90.0
loop_
_atom_site_label
_atom_site_type_symbol
_atom_site_fract_x
_atom_site_fract_y
_atom_site_fract_z
V1    V   0.19942  0.19942  0.50000
V2    V   0.19942  0.80058  0.50000
V3    V   0.30058  0.30058  0.00000
V4    V   0.30058  0.69942  0.00000
V5    V   0.69942  0.30058  0.00000
V6    V   0.69942  0.69942  0.00000
V7    V   0.80058  0.19942  0.50000
V8    V   0.80058  0.80058  0.50000
EC1    EC   0.08260  0.08260  0.50000
EC2    EC   0.08260  0.91740  0.50000
EC3    EC   0.41740  0.41740  0.00000
EC4    EC   0.41740  0.58260  0.00000
EC5    EC   0.58260  0.41740  0.00000
EC6    EC   0.58260  0.58260  0.00000
EC7    EC   0.91740  0.08260  0.50000
EC8    EC   0.91740  0.91740  0.50000
E1    E   0.00000  0.08260  0.50000
E2    E   0.00000  0.91740  0.50000
E3    E   0.08260  0.00000  0.50000
E4    E   0.14101  0.14101  0.50000
E5    E   0.14101  0.85899  0.50000
E6    E   0.19942  0.19942  0.00000
E7    E   0.19942  0.80058  0.00000
E8    E   0.25000  0.25000  0.25000
E9    E   0.25000  0.25000  0.75000
E10   E   0.25000  0.75000  0.25000
E11   E   0.25000  0.75000  0.75000
E12   E   0.30058  0.30058  0.50000
E13   E   0.30058  0.69942  0.50000
E14   E   0.35899  0.35899  0.00000
E15   E   0.35899  0.64101  0.00000
E16   E   0.41740  0.50000  0.00000
E17   E   0.50000  0.41740  0.00000
E18   E   0.50000  0.58260  0.00000
E19   E   0.58260  0.50000  0.00000
E20   E   0.64101  0.35899  0.00000
E21   E   0.64101  0.64101  0.00000
E22   E   0.69942  0.30058  0.50000
E23   E   0.69942  0.69942  0.50000
E24   E   0.75000  0.25000  0.25000
E25   E   0.75000  0.25000  0.75000
E26   E   0.75000  0.75000  0.25000
E27   E   0.75000  0.75000  0.75000
E28   E   0.80058  0.19942  0.00000
E29   E   0.80058  0.80058  0.00000
E30   E   0.85899  0.14101  0.50000
E31   E   0.85899  0.85899  0.50000
E32   E   0.91740  0.00000  0.50000
loop_
