data_zec_Cmmm  hall_number: 310, V_con: 4, EC_con: 4
_audit_creation_date              2025-03-05
_audit_creation_method            'MOFbuilder_1.0'
_symmetry_space_group_name_H-M    'P1'
_symmetry_Int_Tables_number       1
_symmetry_cell_setting            triclinic
loop_
_symmetry_equiv_pos_as_xyz
  x,y,z
_cell_length_a                    42.285000000000004
_cell_length_b                    35.3819
_cell_length_c                    23.5053
_cell_angle_alpha                 90.0
_cell_angle_beta                  90.0
_cell_angle_gamma                 90.0
loop_
_atom_site_label
_atom_site_type_symbol
_atom_site_fract_x
_atom_site_fract_y
_atom_site_fract_z
V1    V   0.00000  0.13984  0.00000
V2    V   0.00000  0.86016  0.00000
V3    V   0.50000  0.36016  0.00000
V4    V   0.50000  0.63984  0.00000
EC1    EC   0.17442  0.14131  0.28728
EC2    EC   0.17442  0.14131  0.71272
EC3    EC   0.17442  0.85869  0.28728
EC4    EC   0.17442  0.85869  0.71272
EC5    EC   0.32558  0.35869  0.28728
EC6    EC   0.32558  0.35869  0.71272
EC7    EC   0.32558  0.64131  0.28728
EC8    EC   0.32558  0.64131  0.71272
EC9    EC   0.67442  0.35869  0.28728
EC10   EC   0.67442  0.35869  0.71272
EC11   EC   0.67442  0.64131  0.28728
EC12   EC   0.67442  0.64131  0.71272
EC13   EC   0.82558  0.14131  0.28728
EC14   EC   0.82558  0.14131  0.71272
EC15   EC   0.82558  0.85869  0.28728
EC16   EC   0.82558  0.85869  0.71272
E1    E   0.08721  0.14058  0.14364
E2    E   0.08721  0.14058  0.85636
E3    E   0.08721  0.85942  0.14364
E4    E   0.08721  0.85942  0.85636
E5    E   0.17442  0.00000  0.28728
E6    E   0.17442  0.00000  0.71272
E7    E   0.17442  0.14131  0.50000
E8    E   0.17442  0.85869  0.50000
E9    E   0.25000  0.25000  0.28728
E10   E   0.25000  0.25000  0.71272
E11   E   0.25000  0.75000  0.28728
E12   E   0.25000  0.75000  0.71272
E13   E   0.32558  0.35869  0.50000
E14   E   0.32558  0.50000  0.28728
E15   E   0.32558  0.50000  0.71272
E16   E   0.32558  0.64131  0.50000
E17   E   0.41279  0.35942  0.14364
E18   E   0.41279  0.35942  0.85636
E19   E   0.41279  0.64058  0.14364
E20   E   0.41279  0.64058  0.85636
E21   E   0.58721  0.35942  0.14364
E22   E   0.58721  0.35942  0.85636
E23   E   0.58721  0.64058  0.14364
E24   E   0.58721  0.64058  0.85636
E25   E   0.67442  0.35869  0.50000
E26   E   0.67442  0.50000  0.28728
E27   E   0.67442  0.50000  0.71272
E28   E   0.67442  0.64131  0.50000
E29   E   0.75000  0.25000  0.28728
E30   E   0.75000  0.25000  0.71272
E31   E   0.75000  0.75000  0.28728
E32   E   0.75000  0.75000  0.71272
E33   E   0.82558  0.00000  0.28728
E34   E   0.82558  0.00000  0.71272
E35   E   0.82558  0.14131  0.50000
E36   E   0.82558  0.85869  0.50000
E37   E   0.91279  0.14058  0.14364
E38   E   0.91279  0.14058  0.85636
E39   E   0.91279  0.85942  0.14364
E40   E   0.91279  0.85942  0.85636
loop_
