data_zfc_I422  hall_number: 374, V_con: 5
_audit_creation_date              2025-03-05
_audit_creation_method            'MOFbuilder_1.0'
_symmetry_space_group_name_H-M    'P1'
_symmetry_Int_Tables_number       1
_symmetry_cell_setting            triclinic
loop_
_symmetry_equiv_pos_as_xyz
  x,y,z
_cell_length_a                    47.0035
_cell_length_b                    47.0035
_cell_length_c                    10.0
_cell_angle_alpha                 90.0
_cell_angle_beta                  90.0
_cell_angle_gamma                 90.0
loop_
_atom_site_label
_atom_site_type_symbol
_atom_site_fract_x
_atom_site_fract_y
_atom_site_fract_z
V1    V   0.10513  0.25380  0.92363
V2    V   0.10513  0.74620  0.07637
V3    V   0.24620  0.39487  0.57637
V4    V   0.24620  0.60513  0.42363
V5    V   0.25380  0.10513  0.07637
V6    V   0.25380  0.89487  0.92363
V7    V   0.39487  0.24620  0.42363
V8    V   0.39487  0.75380  0.57637
V9    V   0.60513  0.24620  0.57637
V10   V   0.60513  0.75380  0.42363
V11   V   0.74620  0.10513  0.92363
V12   V   0.74620  0.89487  0.07637
V13   V   0.75380  0.39487  0.42363
V14   V   0.75380  0.60513  0.57637
V15   V   0.89487  0.25380  0.07637
V16   V   0.89487  0.74620  0.92363
E1    E   0.00000  0.25380  0.00000
E2    E   0.00000  0.74620  0.00000
E3    E   0.10513  0.25380  0.42363
E4    E   0.10513  0.74620  0.57637
E5    E   0.17566  0.32434  0.75000
E6    E   0.17566  0.67566  0.25000
E7    E   0.17566  0.32434  0.75000
E8    E   0.17566  0.67566  0.25000
E9    E   0.17946  0.17946  0.00000
E10   E   0.17946  0.82054  0.00000
E11   E   0.24620  0.39487  0.07637
E12   E   0.24620  0.50000  0.50000
E13   E   0.24620  0.60513  0.92363
E14   E   0.25380  0.00000  0.00000
E15   E   0.25380  0.10513  0.57637
E16   E   0.25380  0.89487  0.42363
E17   E   0.32054  0.32054  0.50000
E18   E   0.32054  0.67946  0.50000
E19   E   0.32434  0.17566  0.25000
E20   E   0.32434  0.82434  0.75000
E21   E   0.32434  0.17566  0.25000
E22   E   0.32434  0.82434  0.75000
E23   E   0.39487  0.24620  0.92363
E24   E   0.39487  0.75380  0.07637
E25   E   0.50000  0.24620  0.50000
E26   E   0.50000  0.75380  0.50000
E27   E   0.60513  0.24620  0.07637
E28   E   0.60513  0.75380  0.92363
E29   E   0.67566  0.17566  0.75000
E30   E   0.67566  0.82434  0.25000
E31   E   0.67566  0.17566  0.75000
E32   E   0.67566  0.82434  0.25000
E33   E   0.67946  0.32054  0.50000
E34   E   0.67946  0.67946  0.50000
E35   E   0.74620  0.00000  0.00000
E36   E   0.74620  0.10513  0.42363
E37   E   0.74620  0.89487  0.57637
E38   E   0.75380  0.39487  0.92363
E39   E   0.75380  0.50000  0.50000
E40   E   0.75380  0.60513  0.07637
E41   E   0.82054  0.17946  0.00000
E42   E   0.82054  0.82054  0.00000
E43   E   0.82434  0.32434  0.25000
E44   E   0.82434  0.67566  0.75000
E45   E   0.82434  0.32434  0.25000
E46   E   0.82434  0.67566  0.75000
E47   E   0.89487  0.25380  0.57637
E48   E   0.89487  0.74620  0.42363
loop_
