data_zfm_P42/nbc:2  hall_number: 415, V_con: 5
_audit_creation_date              2025-03-05
_audit_creation_method            'MOFbuilder_1.0'
_symmetry_space_group_name_H-M    'P1'
_symmetry_Int_Tables_number       1
_symmetry_cell_setting            triclinic
loop_
_symmetry_equiv_pos_as_xyz
  x,y,z
_cell_length_a                    19.6448
_cell_length_b                    19.6448
_cell_length_c                    37.9793
_cell_angle_alpha                 90.0
_cell_angle_beta                  90.0
_cell_angle_gamma                 90.0
loop_
_atom_site_label
_atom_site_type_symbol
_atom_site_fract_x
_atom_site_fract_y
_atom_site_fract_z
V1    V   0.04775  0.09548  0.61951
V2    V   0.04775  0.40452  0.38049
V3    V   0.09548  0.04775  0.88049
V4    V   0.09548  0.45225  0.11951
V5    V   0.40452  0.04775  0.11951
V6    V   0.40452  0.45225  0.88049
V7    V   0.45225  0.09548  0.38049
V8    V   0.45225  0.40452  0.61951
V9    V   0.54775  0.59548  0.38049
V10   V   0.54775  0.90452  0.61951
V11   V   0.59548  0.54775  0.11951
V12   V   0.59548  0.95225  0.88049
V13   V   0.90452  0.54775  0.88049
V14   V   0.90452  0.95225  0.11951
V15   V   0.95225  0.59548  0.61951
V16   V   0.95225  0.90452  0.38049
E1    E   0.00000  0.00000  0.00000
E2    E   0.00000  0.00000  0.50000
E3    E   0.00000  0.15452  0.38049
E4    E   0.00000  0.34548  0.61951
E5    E   0.00000  0.50000  0.00000
E6    E   0.00000  0.50000  0.50000
E7    E   0.00000  0.65452  0.38049
E8    E   0.00000  0.84548  0.61951
E9    E   0.07162  0.07162  0.75000
E10   E   0.07162  0.42838  0.25000
E11   E   0.07162  0.07162  0.75000
E12   E   0.07162  0.42838  0.25000
E13   E   0.15452  0.00000  0.11951
E14   E   0.15452  0.50000  0.88049
E15   E   0.25000  0.25000  0.11951
E16   E   0.25000  0.25000  0.38049
E17   E   0.25000  0.25000  0.61951
E18   E   0.25000  0.25000  0.88049
E19   E   0.34548  0.00000  0.88049
E20   E   0.34548  0.50000  0.11951
E21   E   0.42838  0.07162  0.25000
E22   E   0.42838  0.07162  0.25000
E23   E   0.42838  0.42838  0.75000
E24   E   0.50000  0.00000  0.00000
E25   E   0.50000  0.00000  0.50000
E26   E   0.50000  0.15452  0.61951
E27   E   0.50000  0.34548  0.38049
E28   E   0.50000  0.50000  0.00000
E29   E   0.50000  0.50000  0.50000
E30   E   0.50000  0.65452  0.61951
E31   E   0.50000  0.84548  0.38049
E32   E   0.57162  0.57162  0.25000
E33   E   0.57162  0.92838  0.75000
E34   E   0.65452  0.00000  0.11951
E35   E   0.65452  0.50000  0.88049
E36   E   0.75000  0.75000  0.11951
E37   E   0.75000  0.75000  0.38049
E38   E   0.75000  0.75000  0.61951
E39   E   0.75000  0.75000  0.88049
E40   E   0.84548  0.00000  0.88049
E41   E   0.84548  0.50000  0.11951
E42   E   0.92838  0.57162  0.75000
E43   E   0.92838  0.92838  0.25000
loop_
