data_zfo_P42/mbc  hall_number: 418, V_con: 5
_audit_creation_date              2025-03-05
_audit_creation_method            'MOFbuilder_1.0'
_symmetry_space_group_name_H-M    'P1'
_symmetry_Int_Tables_number       1
_symmetry_cell_setting            triclinic
loop_
_symmetry_equiv_pos_as_xyz
  x,y,z
_cell_length_a                    19.874499999999998
_cell_length_b                    19.874499999999998
_cell_length_c                    37.877
_cell_angle_alpha                 90.0
_cell_angle_beta                  90.0
_cell_angle_gamma                 90.0
loop_
_atom_site_label
_atom_site_type_symbol
_atom_site_fract_x
_atom_site_fract_y
_atom_site_fract_z
V1    V   0.11862  0.22186  0.13201
V2    V   0.11862  0.22186  0.86799
V3    V   0.22186  0.88138  0.36799
V4    V   0.22186  0.88138  0.63201
V5    V   0.27814  0.38138  0.36799
V6    V   0.27814  0.38138  0.63201
V7    V   0.38138  0.72186  0.13201
V8    V   0.38138  0.72186  0.86799
V9    V   0.61862  0.27814  0.13201
V10   V   0.61862  0.27814  0.86799
V11   V   0.72186  0.61862  0.36799
V12   V   0.72186  0.61862  0.63201
V13   V   0.77814  0.11862  0.36799
V14   V   0.77814  0.11862  0.63201
V15   V   0.88138  0.77814  0.13201
V16   V   0.88138  0.77814  0.86799
E1    E   0.00000  0.00000  0.13201
E2    E   0.00000  0.00000  0.36799
E3    E   0.00000  0.00000  0.63201
E4    E   0.00000  0.00000  0.86799
E5    E   0.11862  0.22186  0.00000
E6    E   0.13138  0.75000  0.13201
E7    E   0.13138  0.75000  0.86799
E8    E   0.19838  0.30162  0.25000
E9    E   0.19838  0.30162  0.75000
E10   E   0.22186  0.88138  0.50000
E11   E   0.25000  0.13138  0.36799
E12   E   0.25000  0.13138  0.63201
E13   E   0.25000  0.63138  0.36799
E14   E   0.25000  0.63138  0.63201
E15   E   0.27814  0.38138  0.50000
E16   E   0.30162  0.80162  0.25000
E17   E   0.30162  0.80162  0.75000
E18   E   0.36862  0.25000  0.13201
E19   E   0.36862  0.25000  0.86799
E20   E   0.38138  0.72186  0.00000
E21   E   0.50000  0.50000  0.13201
E22   E   0.50000  0.50000  0.36799
E23   E   0.50000  0.50000  0.63201
E24   E   0.50000  0.50000  0.86799
E25   E   0.61862  0.27814  0.00000
E26   E   0.63138  0.75000  0.13201
E27   E   0.63138  0.75000  0.86799
E28   E   0.69838  0.19838  0.25000
E29   E   0.69838  0.19838  0.75000
E30   E   0.72186  0.61862  0.50000
E31   E   0.75000  0.36862  0.36799
E32   E   0.75000  0.36862  0.63201
E33   E   0.75000  0.86862  0.36799
E34   E   0.75000  0.86862  0.63201
E35   E   0.77814  0.11862  0.50000
E36   E   0.80162  0.69838  0.25000
E37   E   0.80162  0.69838  0.75000
E38   E   0.86862  0.25000  0.13201
E39   E   0.86862  0.25000  0.86799
E40   E   0.88138  0.77814  0.00000
loop_
