data_zfq_I-4c2  hall_number: 397, V_con: 5
_audit_creation_date              2025-03-05
_audit_creation_method            'MOFbuilder_1.0'
_symmetry_space_group_name_H-M    'P1'
_symmetry_Int_Tables_number       1
_symmetry_cell_setting            triclinic
loop_
_symmetry_equiv_pos_as_xyz
  x,y,z
_cell_length_a                    19.731099999999998
_cell_length_b                    19.731099999999998
_cell_length_c                    37.8983
_cell_angle_alpha                 90.0
_cell_angle_beta                  90.0
_cell_angle_gamma                 90.0
loop_
_atom_site_label
_atom_site_type_symbol
_atom_site_fract_x
_atom_site_fract_y
_atom_site_fract_z
V1    V   0.14389  0.20859  0.12024
V2    V   0.14389  0.79141  0.62024
V3    V   0.20859  0.14389  0.37976
V4    V   0.20859  0.85611  0.87976
V5    V   0.29141  0.35611  0.87976
V6    V   0.29141  0.64389  0.37976
V7    V   0.35611  0.29141  0.62024
V8    V   0.35611  0.70859  0.12024
V9    V   0.64389  0.29141  0.12024
V10   V   0.64389  0.70859  0.62024
V11   V   0.70859  0.35611  0.37976
V12   V   0.70859  0.64389  0.87976
V13   V   0.79141  0.14389  0.87976
V14   V   0.79141  0.85611  0.37976
V15   V   0.85611  0.20859  0.62024
V16   V   0.85611  0.79141  0.12024
E1    E   0.00000  0.00000  0.12024
E2    E   0.00000  0.00000  0.37976
E3    E   0.00000  0.00000  0.62024
E4    E   0.00000  0.00000  0.87976
E5    E   0.10611  0.25000  0.62024
E6    E   0.10611  0.75000  0.12024
E7    E   0.17624  0.17624  0.25000
E8    E   0.17624  0.82376  0.75000
E9    E   0.21765  0.28235  0.00000
E10   E   0.21765  0.71765  0.50000
E11   E   0.25000  0.10611  0.87976
E12   E   0.25000  0.39389  0.37976
E13   E   0.25000  0.60611  0.87976
E14   E   0.25000  0.89389  0.37976
E15   E   0.28235  0.21765  0.50000
E16   E   0.28235  0.78235  0.00000
E17   E   0.32376  0.32376  0.75000
E18   E   0.32376  0.67624  0.25000
E19   E   0.39389  0.25000  0.12024
E20   E   0.39389  0.75000  0.62024
E21   E   0.50000  0.50000  0.12024
E22   E   0.50000  0.50000  0.37976
E23   E   0.50000  0.50000  0.62024
E24   E   0.50000  0.50000  0.87976
E25   E   0.60611  0.25000  0.62024
E26   E   0.60611  0.75000  0.12024
E27   E   0.67624  0.32376  0.25000
E28   E   0.67624  0.67624  0.75000
E29   E   0.71765  0.21765  0.00000
E30   E   0.71765  0.78235  0.50000
E31   E   0.75000  0.10611  0.37976
E32   E   0.75000  0.39389  0.87976
E33   E   0.75000  0.60611  0.37976
E34   E   0.75000  0.89389  0.87976
E35   E   0.78235  0.28235  0.50000
E36   E   0.78235  0.71765  0.00000
E37   E   0.82376  0.17624  0.75000
E38   E   0.82376  0.82376  0.25000
E39   E   0.89389  0.25000  0.12024
E40   E   0.89389  0.75000  0.62024
loop_
