data_zfr_P4122  hall_number: 368, V_con: 5
_audit_creation_date              2025-03-05
_audit_creation_method            'MOFbuilder_1.0'
_symmetry_space_group_name_H-M    'P1'
_symmetry_Int_Tables_number       1
_symmetry_cell_setting            triclinic
loop_
_symmetry_equiv_pos_as_xyz
  x,y,z
_cell_length_a                    32.4078
_cell_length_b                    32.4078
_cell_length_c                    10.0
_cell_angle_alpha                 90.0
_cell_angle_beta                  90.0
_cell_angle_gamma                 90.0
loop_
_atom_site_label
_atom_site_type_symbol
_atom_site_fract_x
_atom_site_fract_y
_atom_site_fract_z
V1    V   0.13743  0.34587  0.22726
V2    V   0.13743  0.65413  0.27274
V3    V   0.34587  0.13743  0.52274
V4    V   0.34587  0.86257  0.97726
V5    V   0.65413  0.13743  0.47726
V6    V   0.65413  0.86257  0.02274
V7    V   0.86257  0.34587  0.77274
V8    V   0.86257  0.65413  0.72726
E1    E   0.00000  0.34587  0.00000
E2    E   0.00000  0.65413  0.50000
E3    E   0.13743  0.34587  0.72726
E4    E   0.13743  0.50000  0.25000
E5    E   0.13743  0.65413  0.77274
E6    E   0.24165  0.24165  0.37500
E7    E   0.24165  0.75835  0.12500
E8    E   0.34587  0.00000  0.75000
E9    E   0.34587  0.13743  0.02274
E10   E   0.34587  0.86257  0.47726
E11   E   0.50000  0.13743  0.50000
E12   E   0.50000  0.86257  0.00000
E13   E   0.65413  0.00000  0.25000
E14   E   0.65413  0.13743  0.97726
E15   E   0.65413  0.86257  0.52274
E16   E   0.75835  0.24165  0.62500
E17   E   0.75835  0.75835  0.87500
E18   E   0.86257  0.34587  0.27274
E19   E   0.86257  0.50000  0.75000
E20   E   0.86257  0.65413  0.22726
loop_
