data_zfw_I41/amd:2  hall_number: 427, V_con: 5
_audit_creation_date              2025-03-05
_audit_creation_method            'MOFbuilder_1.0'
_symmetry_space_group_name_H-M    'P1'
_symmetry_Int_Tables_number       1
_symmetry_cell_setting            triclinic
loop_
_symmetry_equiv_pos_as_xyz
  x,y,z
_cell_length_a                    44.8536
_cell_length_b                    44.8536
_cell_length_c                    10.0
_cell_angle_alpha                 90.0
_cell_angle_beta                  90.0
_cell_angle_gamma                 90.0
loop_
_atom_site_label
_atom_site_type_symbol
_atom_site_fract_x
_atom_site_fract_y
_atom_site_fract_z
V1    V   0.00000  0.10067  0.21474
V2    V   0.00000  0.39933  0.21474
V3    V   0.00000  0.60067  0.78526
V4    V   0.00000  0.89933  0.78526
V5    V   0.14933  0.25000  0.53526
V6    V   0.14933  0.75000  0.46474
V7    V   0.35067  0.25000  0.96474
V8    V   0.35067  0.75000  0.03526
V9    V   0.50000  0.10067  0.28526
V10   V   0.50000  0.39933  0.28526
V11   V   0.50000  0.60067  0.71474
V12   V   0.50000  0.89933  0.71474
V13   V   0.64933  0.25000  0.96474
V14   V   0.64933  0.75000  0.03526
V15   V   0.85067  0.25000  0.53526
V16   V   0.85067  0.75000  0.46474
E1    E   0.00000  0.00000  0.00000
E2    E   0.00000  0.10067  0.71474
E3    E   0.00000  0.39933  0.71474
E4    E   0.00000  0.50000  0.00000
E5    E   0.00000  0.60067  0.28526
E6    E   0.00000  0.89933  0.28526
E7    E   0.07467  0.17533  0.37500
E8    E   0.07467  0.32467  0.37500
E9    E   0.07467  0.67533  0.62500
E10   E   0.07467  0.82467  0.62500
E11   E   0.07467  0.17533  0.37500
E12   E   0.07467  0.32467  0.37500
E13   E   0.07467  0.67533  0.62500
E14   E   0.07467  0.82467  0.62500
E15   E   0.14933  0.25000  0.03526
E16   E   0.14933  0.75000  0.96474
E17   E   0.25000  0.25000  0.75000
E18   E   0.25000  0.75000  0.25000
E19   E   0.35067  0.25000  0.46474
E20   E   0.35067  0.75000  0.53526
E21   E   0.42533  0.17533  0.12500
E22   E   0.42533  0.17533  0.12500
E23   E   0.42533  0.32467  0.12500
E24   E   0.42533  0.67533  0.87500
E25   E   0.42533  0.82467  0.87500
E26   E   0.50000  0.00000  0.50000
E27   E   0.50000  0.10067  0.78526
E28   E   0.50000  0.39933  0.78526
E29   E   0.50000  0.50000  0.50000
E30   E   0.50000  0.60067  0.21474
E31   E   0.50000  0.89933  0.21474
E32   E   0.57467  0.17533  0.12500
E33   E   0.57467  0.17533  0.12500
E34   E   0.57467  0.32467  0.12500
E35   E   0.57467  0.67533  0.87500
E36   E   0.57467  0.82467  0.87500
E37   E   0.64933  0.25000  0.46474
E38   E   0.64933  0.75000  0.53526
E39   E   0.75000  0.25000  0.75000
E40   E   0.75000  0.75000  0.25000
E41   E   0.85067  0.25000  0.03526
E42   E   0.85067  0.75000  0.96474
E43   E   0.92533  0.17533  0.37500
E44   E   0.92533  0.17533  0.37500
E45   E   0.92533  0.32467  0.37500
E46   E   0.92533  0.67533  0.62500
E47   E   0.92533  0.82467  0.62500
loop_
