data_zhl_I12/a1  hall_number: 107, V_con: 8, EC_con: 5
_audit_creation_date              2025-03-05
_audit_creation_method            'MOFbuilder_1.0'
_symmetry_space_group_name_H-M    'P1'
_symmetry_Int_Tables_number       1
_symmetry_cell_setting            triclinic
loop_
_symmetry_equiv_pos_as_xyz
  x,y,z
_cell_length_a                    17.320500000000003
_cell_length_b                    33.5569
_cell_length_c                    31.5721
_cell_angle_alpha                 90.0
_cell_angle_beta                  100.5925
_cell_angle_gamma                 90.0
loop_
_atom_site_label
_atom_site_type_symbol
_atom_site_fract_x
_atom_site_fract_y
_atom_site_fract_z
V1    V   0.03926  0.57450  0.36845
V2    V   0.03926  0.92550  0.63155
V3    V   0.46074  0.57450  0.86845
V4    V   0.46074  0.92550  0.13155
V5    V   0.53926  0.07450  0.86845
V6    V   0.53926  0.42550  0.13155
V7    V   0.96074  0.07450  0.36845
V8    V   0.96074  0.42550  0.63155
EC1    EC   0.03926  0.22350  0.63155
EC2    EC   0.03926  0.27650  0.36845
EC3    EC   0.46074  0.22350  0.13155
EC4    EC   0.46074  0.27650  0.86845
EC5    EC   0.53926  0.72350  0.13155
EC6    EC   0.53926  0.77650  0.86845
EC7    EC   0.96074  0.72350  0.63155
EC8    EC   0.96074  0.77650  0.36845
E1    E   0.00000  0.00000  0.50000
E2    E   0.00000  0.14900  0.50000
E3    E   0.00000  0.17550  0.25000
E4    E   0.00000  0.32450  0.75000
E5    E   0.00000  0.35100  0.50000
E6    E   0.00000  0.50000  0.50000
E7    E   0.00000  0.64900  0.50000
E8    E   0.00000  0.67550  0.25000
E9    E   0.00000  0.82450  0.75000
E10   E   0.00000  0.85100  0.50000
E11   E   0.03926  0.07450  0.63155
E12   E   0.03926  0.42550  0.36845
E13   E   0.21074  0.00000  0.13155
E14   E   0.21074  0.14900  0.13155
E15   E   0.21074  0.35100  0.86845
E16   E   0.21074  0.50000  0.86845
E17   E   0.25000  0.22350  0.00000
E18   E   0.25000  0.22350  0.50000
E19   E   0.25000  0.27650  0.00000
E20   E   0.25000  0.27650  0.50000
E21   E   0.25000  0.57450  0.00000
E22   E   0.25000  0.57450  0.50000
E23   E   0.25000  0.92550  0.00000
E24   E   0.25000  0.92550  0.50000
E25   E   0.28926  0.00000  0.63155
E26   E   0.28926  0.14900  0.63155
E27   E   0.28926  0.35100  0.36845
E28   E   0.28926  0.50000  0.36845
E29   E   0.46074  0.07450  0.13155
E30   E   0.46074  0.42550  0.86845
E31   E   0.50000  0.00000  0.00000
E32   E   0.50000  0.14900  0.00000
E33   E   0.50000  0.17550  0.75000
E34   E   0.50000  0.32450  0.25000
E35   E   0.50000  0.35100  0.00000
E36   E   0.50000  0.50000  0.00000
E37   E   0.50000  0.64900  0.00000
E38   E   0.50000  0.67550  0.75000
E39   E   0.50000  0.82450  0.25000
E40   E   0.50000  0.85100  0.00000
E41   E   0.53926  0.57450  0.13155
E42   E   0.53926  0.92550  0.86845
E43   E   0.71074  0.00000  0.36845
E44   E   0.71074  0.50000  0.63155
E45   E   0.71074  0.64900  0.63155
E46   E   0.71074  0.85100  0.36845
E47   E   0.75000  0.07450  0.00000
E48   E   0.75000  0.07450  0.50000
E49   E   0.75000  0.42550  0.00000
E50   E   0.75000  0.42550  0.50000
E51   E   0.75000  0.72350  0.00000
E52   E   0.75000  0.72350  0.50000
E53   E   0.75000  0.77650  0.00000
E54   E   0.75000  0.77650  0.50000
E55   E   0.78926  0.00000  0.86845
E56   E   0.78926  0.50000  0.13155
E57   E   0.78926  0.64900  0.13155
E58   E   0.78926  0.85100  0.86845
E59   E   0.96074  0.57450  0.63155
E60   E   0.96074  0.92550  0.36845
loop_
