data_zme_P63/mmc  hall_number: 488, V_con: 3, EC_con: 3
_audit_creation_date              2025-03-05
_audit_creation_method            'MOFbuilder_1.0'
_symmetry_space_group_name_H-M    'P1'
_symmetry_Int_Tables_number       1
_symmetry_cell_setting            triclinic
loop_
_symmetry_equiv_pos_as_xyz
  x,y,z
_cell_length_a                    44.8156
_cell_length_b                    44.8156
_cell_length_c                    39.694500000000005
_cell_angle_alpha                 90.0
_cell_angle_beta                  90.0
_cell_angle_gamma                 120.0
loop_
_atom_site_label
_atom_site_type_symbol
_atom_site_fract_x
_atom_site_fract_y
_atom_site_fract_z
V1    V   0.19438  0.38877  0.12404
V2    V   0.19438  0.38877  0.37596
V3    V   0.19438  0.80561  0.12404
V4    V   0.19438  0.80561  0.37596
V5    V   0.19439  0.38877  0.12404
V6    V   0.19439  0.38877  0.37596
V7    V   0.19439  0.80562  0.12404
V8    V   0.19439  0.80562  0.37596
V9    V   0.38877  0.19438  0.62404
V10   V   0.38877  0.19438  0.87596
V11   V   0.38877  0.19439  0.62404
V12   V   0.38877  0.19439  0.87596
V13   V   0.61123  0.80561  0.12404
V14   V   0.61123  0.80561  0.37596
V15   V   0.61123  0.80562  0.12404
V16   V   0.61123  0.80562  0.37596
V17   V   0.80561  0.19438  0.62404
V18   V   0.80561  0.19438  0.87596
V19   V   0.80561  0.61123  0.62404
V20   V   0.80561  0.61123  0.87596
V21   V   0.80562  0.19439  0.62404
V22   V   0.80562  0.19439  0.87596
V23   V   0.80562  0.61123  0.62404
V24   V   0.80562  0.61123  0.87596
EC1    EC   0.00000  0.38843  0.00000
EC2    EC   0.00000  0.38843  0.50000
EC3    EC   0.00000  0.61157  0.00000
EC4    EC   0.00000  0.61157  0.50000
EC5    EC   0.38843  0.00000  0.00000
EC6    EC   0.38843  0.00000  0.50000
EC7    EC   0.38843  0.38843  0.00000
EC8    EC   0.38843  0.38843  0.50000
EC9    EC   0.61157  0.00000  0.00000
EC10   EC   0.61157  0.00000  0.50000
EC11   EC   0.61157  0.61157  0.00000
EC12   EC   0.61157  0.61157  0.50000
E1    E   0.00000  0.50000  0.00000
E2    E   0.00000  0.50000  0.50000
E3    E   0.09719  0.38860  0.06202
E4    E   0.09719  0.38860  0.43798
E5    E   0.09719  0.70859  0.06202
E6    E   0.09719  0.70859  0.43798
E7    E   0.19438  0.38877  0.25000
E8    E   0.19438  0.80561  0.25000
E9    E   0.19439  0.38877  0.25000
E10   E   0.19439  0.80562  0.25000
E11   E   0.29141  0.38860  0.06202
E12   E   0.29141  0.38860  0.43798
E13   E   0.29141  0.90281  0.06202
E14   E   0.29141  0.90281  0.43798
E15   E   0.38860  0.09719  0.56202
E16   E   0.38860  0.09719  0.93798
E17   E   0.38860  0.29141  0.56202
E18   E   0.38860  0.29141  0.93798
E19   E   0.38877  0.19438  0.75000
E20   E   0.38877  0.19439  0.75000
E21   E   0.50000  0.00000  0.00000
E22   E   0.50000  0.00000  0.50000
E23   E   0.50000  0.50000  0.00000
E24   E   0.50000  0.50000  0.50000
E25   E   0.61123  0.80561  0.25000
E26   E   0.61123  0.80562  0.25000
E27   E   0.61140  0.70859  0.06202
E28   E   0.61140  0.70859  0.43798
E29   E   0.61140  0.90281  0.06202
E30   E   0.61140  0.90281  0.43798
E31   E   0.70859  0.09719  0.56202
E32   E   0.70859  0.09719  0.93798
E33   E   0.70859  0.61140  0.56202
E34   E   0.70859  0.61140  0.93798
E35   E   0.80561  0.19438  0.75000
E36   E   0.80561  0.61123  0.75000
E37   E   0.80562  0.19439  0.75000
E38   E   0.80562  0.61123  0.75000
E39   E   0.90281  0.29141  0.56202
E40   E   0.90281  0.29141  0.93798
E41   E   0.90281  0.61140  0.56202
E42   E   0.90281  0.61140  0.93798
loop_
