
#======================================================================
# CRYSTAL DATA
#----------------------------------------------------------------------
data_VESTA_phase_1

_chemical_name_common                  'diedge'
_cell_length_a                         50.000000
_cell_length_b                         50.000000
_cell_length_c                         50.000000
_cell_angle_alpha                      90.000000
_cell_angle_beta                       90.000000
_cell_angle_gamma                      90.000000
_cell_volume                           125000.000000
_space_group_name_H-M_alt              'P 1'
_space_group_IT_number                 1

loop_
_space_group_symop_operation_xyz
   'x, y, z'

loop_
   _atom_site_label
   _atom_site_occupancy
   _atom_site_fract_x
   _atom_site_fract_y
   _atom_site_fract_z
   _atom_site_adp_type
   _atom_site_U_iso_or_equiv
   _atom_site_type_symbol
   C1         1.0    -0.039585     0.008579     0.029229    Uiso  ? C
   C2         1.0    -0.036725    -0.019381     0.027809    Uiso  ? C
   C3         1.0    -0.015585    -0.031381     0.013409    Uiso  ? C
   C4         1.0     0.002555    -0.014081     0.000609    Uiso  ? C
   C5         1.0     0.023735    -0.025981    -0.013631    Uiso  ? C
   C6         1.0     0.041855    -0.008561    -0.026511    Uiso  ? C
   C7         1.0     0.038835     0.019379    -0.025291    Uiso  ? C
   C8         1.0     0.017595     0.031399    -0.011091    Uiso  ? C
   C9         1.0    -0.000405     0.014099     0.001909    Uiso  ? C
   C10        1.0    -0.021545     0.025999     0.016229    Uiso  ? C
   C11        1.0    -0.024485     0.055979     0.017729    Uiso  ? C
   O12        1.0    -0.042185     0.065299     0.032249    Uiso  ? O
   N13        1.0    -0.007165     0.071559     0.003609    Uiso  ? N
   C14        1.0     0.014075     0.061359    -0.010131    Uiso  ? C
   O15        1.0     0.030515     0.075379    -0.022051    Uiso  ? O
   C16        1.0    -0.011165     0.099979     0.003229    Uiso  ? C
   C17        1.0    -0.008365     0.115539     0.026729    Uiso  ? C
   C18        1.0    -0.010985     0.143539     0.025709    Uiso  ? C
   X19        1.0     0.020035    -0.156221    -0.007631    Uiso  ? C
   C20        1.0    -0.020265     0.140999    -0.021991    Uiso  ? C
   C21        1.0    -0.017305     0.113039    -0.021111    Uiso  ? C
   C22        1.0     0.026915    -0.055961    -0.014911    Uiso  ? C
   O23        1.0     0.046095    -0.065081    -0.027491    Uiso  ? O
   N24        1.0     0.008655    -0.071581    -0.002011    Uiso  ? N
   C25        1.0    -0.012725    -0.061341     0.011369    Uiso  ? C
   O26        1.0    -0.030365    -0.075481     0.021369    Uiso  ? O
   C27        1.0     0.011915    -0.100081    -0.003291    Uiso  ? C
   C28        1.0     0.034355    -0.112341     0.008789    Uiso  ? C
   C29        1.0     0.038335    -0.140141     0.006629    Uiso  ? C
   C30        1.0    -0.002425    -0.144001    -0.019691    Uiso  ? C
   C31        1.0    -0.006645    -0.116301    -0.017251    Uiso  ? C
   H32        1.0    -0.019405     0.101739    -0.039431    Uiso  ? H
   H33        1.0     0.048975    -0.100501     0.019449    Uiso  ? H
   X34        1.0    -0.017145     0.156539     0.001369    Uiso  ? C
   H35        1.0    -0.024785     0.150639    -0.040831    Uiso  ? H
   H36        1.0     0.055755    -0.149141     0.015809    Uiso  ? H
   H37        1.0    -0.016705    -0.155441    -0.031131    Uiso  ? H
   O38        1.0    -0.029185    -0.105621    -0.028251    Uiso  ? O
   H39        1.0    -0.039385    -0.096461    -0.015111    Uiso  ? H
   H40        1.0     0.058455    -0.016781    -0.037671    Uiso  ? H
   H41        1.0     0.053195     0.031879    -0.035611    Uiso  ? H
   H42        1.0    -0.056125     0.016819     0.040509    Uiso  ? H
   H43        1.0    -0.051165    -0.031861     0.037969    Uiso  ? H
   O44        1.0    -0.003585     0.103859     0.050889    Uiso  ? O
   H45        1.0    -0.016765     0.090699     0.054689    Uiso  ? H
   H46        1.0    -0.007985     0.154659     0.043969    Uiso  ? H
