
#======================================================================
# CRYSTAL DATA
#----------------------------------------------------------------------
data_VESTA_phase_1

_chemical_name_common                  'Cr + Tereph                   '
_cell_length_a                         88.868988
_cell_length_b                         88.868988
_cell_length_c                         88.868988
_cell_angle_alpha                      90.000000
_cell_angle_beta                       90.000000
_cell_angle_gamma                      90.000000
_cell_volume                           701860.343301
_space_group_name_H-M_alt              'F d -3 m'
_space_group_IT_number                 227

loop_
_space_group_symop_operation_xyz
   'x, y, z'
   '-x, -y, -z'
   '-x+3/4, -y+1/4, z+1/2'
   'x+1/4, y+3/4, -z+1/2'
   '-x+1/4, y+1/2, -z+3/4'
   'x+3/4, -y+1/2, z+1/4'
   'x+1/2, -y+3/4, -z+1/4'
   '-x+1/2, y+1/4, z+3/4'
   'z, x, y'
   '-z, -x, -y'
   'z+1/2, -x+3/4, -y+1/4'
   '-z+1/2, x+1/4, y+3/4'
   '-z+3/4, -x+1/4, y+1/2'
   'z+1/4, x+3/4, -y+1/2'
   '-z+1/4, x+1/2, -y+3/4'
   'z+3/4, -x+1/2, y+1/4'
   'y, z, x'
   '-y, -z, -x'
   '-y+1/4, z+1/2, -x+3/4'
   'y+3/4, -z+1/2, x+1/4'
   'y+1/2, -z+3/4, -x+1/4'
   '-y+1/2, z+1/4, x+3/4'
   '-y+3/4, -z+1/4, x+1/2'
   'y+1/4, z+3/4, -x+1/2'
   'y+3/4, x+1/4, -z+1/2'
   '-y+1/4, -x+3/4, z+1/2'
   '-y, -x, -z'
   'y, x, z'
   'y+1/4, -x+1/2, z+3/4'
   '-y+3/4, x+1/2, -z+1/4'
   '-y+1/2, x+3/4, z+1/4'
   'y+1/2, -x+1/4, -z+3/4'
   'x+3/4, z+1/4, -y+1/2'
   '-x+1/4, -z+3/4, y+1/2'
   '-x+1/2, z+3/4, y+1/4'
   'x+1/2, -z+1/4, -y+3/4'
   '-x, -z, -y'
   'x, z, y'
   'x+1/4, -z+1/2, y+3/4'
   '-x+3/4, z+1/2, -y+1/4'
   'z+3/4, y+1/4, -x+1/2'
   '-z+1/4, -y+3/4, x+1/2'
   'z+1/4, -y+1/2, x+3/4'
   '-z+3/4, y+1/2, -x+1/4'
   '-z+1/2, y+3/4, x+1/4'
   'z+1/2, -y+1/4, -x+3/4'
   '-z, -y, -x'
   'z, y, x'
   'x, y+1/2, z+1/2'
   '-x, -y+1/2, -z+1/2'
   '-x+3/4, -y+3/4, z'
   'x+1/4, y+1/4, -z'
   '-x+1/4, y, -z+1/4'
   'x+3/4, -y, z+3/4'
   'x+1/2, -y+1/4, -z+3/4'
   '-x+1/2, y+3/4, z+1/4'
   'z, x+1/2, y+1/2'
   '-z, -x+1/2, -y+1/2'
   'z+1/2, -x+1/4, -y+3/4'
   '-z+1/2, x+3/4, y+1/4'
   '-z+3/4, -x+3/4, y'
   'z+1/4, x+1/4, -y'
   '-z+1/4, x, -y+1/4'
   'z+3/4, -x, y+3/4'
   'y, z+1/2, x+1/2'
   '-y, -z+1/2, -x+1/2'
   '-y+1/4, z, -x+1/4'
   'y+3/4, -z, x+3/4'
   'y+1/2, -z+1/4, -x+3/4'
   '-y+1/2, z+3/4, x+1/4'
   '-y+3/4, -z+3/4, x'
   'y+1/4, z+1/4, -x'
   'y+3/4, x+3/4, -z'
   '-y+1/4, -x+1/4, z'
   '-y, -x+1/2, -z+1/2'
   'y, x+1/2, z+1/2'
   'y+1/4, -x, z+1/4'
   '-y+3/4, x, -z+3/4'
   '-y+1/2, x+1/4, z+3/4'
   'y+1/2, -x+3/4, -z+1/4'
   'x+3/4, z+3/4, -y'
   '-x+1/4, -z+1/4, y'
   '-x+1/2, z+1/4, y+3/4'
   'x+1/2, -z+3/4, -y+1/4'
   '-x, -z+1/2, -y+1/2'
   'x, z+1/2, y+1/2'
   'x+1/4, -z, y+1/4'
   '-x+3/4, z, -y+3/4'
   'z+3/4, y+3/4, -x'
   '-z+1/4, -y+1/4, x'
   'z+1/4, -y, x+1/4'
   '-z+3/4, y, -x+3/4'
   '-z+1/2, y+1/4, x+3/4'
   'z+1/2, -y+3/4, -x+1/4'
   '-z, -y+1/2, -x+1/2'
   'z, y+1/2, x+1/2'
   'x+1/2, y, z+1/2'
   '-x+1/2, -y, -z+1/2'
   '-x+1/4, -y+1/4, z'
   'x+3/4, y+3/4, -z'
   '-x+3/4, y+1/2, -z+1/4'
   'x+1/4, -y+1/2, z+3/4'
   'x, -y+3/4, -z+3/4'
   '-x, y+1/4, z+1/4'
   'z+1/2, x, y+1/2'
   '-z+1/2, -x, -y+1/2'
   'z, -x+3/4, -y+3/4'
   '-z, x+1/4, y+1/4'
   '-z+1/4, -x+1/4, y'
   'z+3/4, x+3/4, -y'
   '-z+3/4, x+1/2, -y+1/4'
   'z+1/4, -x+1/2, y+3/4'
   'y+1/2, z, x+1/2'
   '-y+1/2, -z, -x+1/2'
   '-y+3/4, z+1/2, -x+1/4'
   'y+1/4, -z+1/2, x+3/4'
   'y, -z+3/4, -x+3/4'
   '-y, z+1/4, x+1/4'
   '-y+1/4, -z+1/4, x'
   'y+3/4, z+3/4, -x'
   'y+1/4, x+1/4, -z'
   '-y+3/4, -x+3/4, z'
   '-y+1/2, -x, -z+1/2'
   'y+1/2, x, z+1/2'
   'y+3/4, -x+1/2, z+1/4'
   '-y+1/4, x+1/2, -z+3/4'
   '-y, x+3/4, z+3/4'
   'y, -x+1/4, -z+1/4'
   'x+1/4, z+1/4, -y'
   '-x+3/4, -z+3/4, y'
   '-x, z+3/4, y+3/4'
   'x, -z+1/4, -y+1/4'
   '-x+1/2, -z, -y+1/2'
   'x+1/2, z, y+1/2'
   'x+3/4, -z+1/2, y+1/4'
   '-x+1/4, z+1/2, -y+3/4'
   'z+1/4, y+1/4, -x'
   '-z+3/4, -y+3/4, x'
   'z+3/4, -y+1/2, x+1/4'
   '-z+1/4, y+1/2, -x+3/4'
   '-z, y+3/4, x+3/4'
   'z, -y+1/4, -x+1/4'
   '-z+1/2, -y, -x+1/2'
   'z+1/2, y, x+1/2'
   'x+1/2, y+1/2, z'
   '-x+1/2, -y+1/2, -z'
   '-x+1/4, -y+3/4, z+1/2'
   'x+3/4, y+1/4, -z+1/2'
   '-x+3/4, y, -z+3/4'
   'x+1/4, -y, z+1/4'
   'x, -y+1/4, -z+1/4'
   '-x, y+3/4, z+3/4'
   'z+1/2, x+1/2, y'
   '-z+1/2, -x+1/2, -y'
   'z, -x+1/4, -y+1/4'
   '-z, x+3/4, y+3/4'
   '-z+1/4, -x+3/4, y+1/2'
   'z+3/4, x+1/4, -y+1/2'
   '-z+3/4, x, -y+3/4'
   'z+1/4, -x, y+1/4'
   'y+1/2, z+1/2, x'
   '-y+1/2, -z+1/2, -x'
   '-y+3/4, z, -x+3/4'
   'y+1/4, -z, x+1/4'
   'y, -z+1/4, -x+1/4'
   '-y, z+3/4, x+3/4'
   '-y+1/4, -z+3/4, x+1/2'
   'y+3/4, z+1/4, -x+1/2'
   'y+1/4, x+3/4, -z+1/2'
   '-y+3/4, -x+1/4, z+1/2'
   '-y+1/2, -x+1/2, -z'
   'y+1/2, x+1/2, z'
   'y+3/4, -x, z+3/4'
   '-y+1/4, x, -z+1/4'
   '-y, x+1/4, z+1/4'
   'y, -x+3/4, -z+3/4'
   'x+1/4, z+3/4, -y+1/2'
   '-x+3/4, -z+1/4, y+1/2'
   '-x, z+1/4, y+1/4'
   'x, -z+3/4, -y+3/4'
   '-x+1/2, -z+1/2, -y'
   'x+1/2, z+1/2, y'
   'x+3/4, -z, y+3/4'
   '-x+1/4, z, -y+1/4'
   'z+1/4, y+3/4, -x+1/2'
   '-z+3/4, -y+1/4, x+1/2'
   'z+3/4, -y, x+3/4'
   '-z+1/4, y, -x+1/4'
   '-z, y+1/4, x+1/4'
   'z, -y+3/4, -x+3/4'
   '-z+1/2, -y+1/2, -x'
   'z+1/2, y+1/2, x'

loop_
   _atom_site_label
   _atom_site_occupancy
   _atom_site_fract_x
   _atom_site_fract_y
   _atom_site_fract_z
   _atom_site_adp_type
   _atom_site_U_iso_or_equiv
   _atom_site_type_symbol
   Cr6        Cr     0.216320     0.216320     0.299320   
   Cr5        Cr     0.136180     0.361290    -0.111290   
   Cr4        Cr     0.125000     0.354210     0.625000   
   Cr3        Cr     0.142050     0.357950     0.500000   
   Cr2        Cr    -0.070920    -0.097730     0.820920   
   Cr1        Cr     0.094730    -0.072010     0.512910   
   Y9         Y     0.172680     0.172680     0.222150    
   Y7         Y     0.335060     0.315300     0.770520    
   Y6         Y     0.178550     0.178550     0.252980    
   Y4         Y     0.331630     0.312000     0.755070    
   Y39        Y     0.151580    -0.011710     0.414580    
   Y38        Y     0.164840    -0.018460     0.419680    
   Y37        Y     0.141750    -0.004890     0.425220    
   Y35        Y     0.144220    -0.006170     0.440760    
   Y34        Y     0.167890    -0.018070     0.435180    
   Y32        Y     0.157060    -0.013550     0.445710    
   Y31        Y     0.668010    -0.084850    -0.103550    
   Y30        Y     0.679510    -0.076780    -0.095290    
   Y3         Y     0.135770     0.114230     0.066800    
   Y29        Y     0.661840    -0.098040    -0.098040    
   Y27        Y     0.687250    -0.083333    -0.083333    
   Y25        Y     0.115820    -0.063500     0.373110    
   Y24        Y     0.112240    -0.048360     0.377460    
   Y23        Y     0.107690    -0.075890     0.379500    
   Y21        Y     0.094720    -0.073100     0.388830    
   Y20        Y     0.098910    -0.045960     0.385040    
   Y18        Y     0.092040    -0.058160     0.393470    
   Y17        Y     0.092900    -0.039330     0.471970    
   Y16        Y     0.081110    -0.050180     0.472590    
   Y14        Y     0.071840    -0.052310     0.459230    
   Y13        Y     0.245060     0.256320     0.821410    
   Y12        Y     0.237550     0.259400     0.807360    
   Y10        Y     0.236230     0.247480     0.796910    
   Y1         Y    -0.120500    -0.109290    -0.069340    
   Cr7        Cr     0.322800     0.292460     0.708460   
