
#======================================================================
# CRYSTAL DATA
#----------------------------------------------------------------------
data_VESTA_phase_1

_chemical_name_common                  '4(C8 Al O5), C20 Fe2'
_cell_length_a                         6.623(2)
_cell_length_b                         16.893(3)
_cell_length_c                         12.592(2)
_cell_angle_alpha                      90.000000
_cell_angle_beta                       90.000000
_cell_angle_gamma                      90.000000
_cell_volume                           1408.822415
_space_group_name_H-M_alt              'I m m a'
_space_group_IT_number                 74

loop_
_space_group_symop_operation_xyz
   'x, y, z'
   '-x, -y, -z'
   '-x, -y+1/2, z'
   'x, y+1/2, -z'
   '-x, y+1/2, -z'
   'x, -y+1/2, z'
   'x, -y, -z'
   '-x, y, z'
   'x+1/2, y+1/2, z+1/2'
   '-x+1/2, -y+1/2, -z+1/2'
   '-x+1/2, -y, z+1/2'
   'x+1/2, y, -z+1/2'
   '-x+1/2, y, -z+1/2'
   'x+1/2, -y, z+1/2'
   'x+1/2, -y+1/2, -z+1/2'
   '-x+1/2, y+1/2, z+1/2'

loop_
   _atom_site_label
   _atom_site_occupancy
   _atom_site_fract_x
   _atom_site_fract_y
   _atom_site_fract_z
   _atom_site_adp_type
   _atom_site_U_iso_or_equiv
   _atom_site_type_symbol
   Al1        1.0     0.250000     0.250000     0.750000    Uiso  0.038000 Al
   O1         1.0     0.000000     0.250000     0.69297(13) Uiso  0.038000 O
   O2         1.0     0.15590(17)  0.16690(12)  0.84182(12) Uiso  0.038000 O
   C1         1.0     0.000000     0.0599(2)    0.95711(16) Uiso  0.038000 C
   C2         1.0     0.000000     0.12911(14)  0.88311(11) Uiso  0.038000 C
   C3         1.0    -0.1958(4)    0.0361(2)    0.97409(16) Uiso  0.038000 C
   XX         1.0     0.500000     0.500000     0.500000    Uiso  0.050000 X
   YY         1.0     0.500000     0.250000     0.750000    Uiso  0.038000 Y
