data_acs-h_P-31c  hall_number: 455, V_con: 5
_audit_creation_date              2025-03-06
_audit_creation_method            'MOFbuilder_1.0'
_symmetry_space_group_name_H-M    'P1'
_symmetry_Int_Tables_number       1
_symmetry_cell_setting            triclinic
loop_
_symmetry_equiv_pos_as_xyz
  x,y,z
_cell_length_a                    29.1891
_cell_length_b                    29.1891
_cell_length_c                    25.209600000000002
_cell_angle_alpha                 90.0
_cell_angle_beta                  90.0
_cell_angle_gamma                 120.0
loop_
_atom_site_label
_atom_site_type_symbol
_atom_site_fract_x
_atom_site_fract_y
_atom_site_fract_z
V1    V   0.13554  0.46887  0.58806
V2    V   0.13554  0.66667  0.91194
V3    V   0.33333  0.46887  0.91194
V4    V   0.33333  0.86446  0.58806
V5    V   0.46887  0.13554  0.08806
V6    V   0.46887  0.33333  0.41194
V7    V   0.53113  0.66667  0.58806
V8    V   0.53113  0.86446  0.91194
V9    V   0.66667  0.13554  0.41194
V10   V   0.66667  0.53113  0.08806
V11   V   0.86446  0.33333  0.08806
V12   V   0.86446  0.53113  0.41194
E1    E   0.00000  0.50000  0.00000
E2    E   0.00000  0.50000  0.50000
E3    E   0.13554  0.56777  0.75000
E4    E   0.23443  0.46887  0.75000
E5    E   0.23443  0.76556  0.75000
E6    E   0.23444  0.56777  0.91194
E7    E   0.23444  0.66667  0.58806
E8    E   0.23444  0.46887  0.75000
E9    E   0.23444  0.76557  0.75000
E10   E   0.33333  0.56777  0.58806
E11   E   0.33333  0.76556  0.91194
E12   E   0.43223  0.56777  0.75000
E13   E   0.43223  0.66667  0.91194
E14   E   0.43223  0.76556  0.58806
E15   E   0.43223  0.86446  0.75000
E16   E   0.46887  0.23443  0.25000
E17   E   0.46887  0.23444  0.25000
E18   E   0.50000  0.00000  0.00000
E19   E   0.50000  0.00000  0.50000
E20   E   0.50000  0.50000  0.00000
E21   E   0.50000  0.50000  0.50000
E22   E   0.53113  0.76556  0.75000
E23   E   0.53113  0.76557  0.75000
E24   E   0.56777  0.13554  0.25000
E25   E   0.56777  0.23444  0.41194
E26   E   0.56777  0.33333  0.08806
E27   E   0.56777  0.43223  0.25000
E28   E   0.66667  0.23444  0.08806
E29   E   0.66667  0.43223  0.41194
E30   E   0.76556  0.23443  0.25000
E31   E   0.76556  0.33333  0.41194
E32   E   0.76556  0.43223  0.08806
E33   E   0.76556  0.53113  0.25000
E34   E   0.76557  0.23444  0.25000
E35   E   0.76557  0.53113  0.25000
E36   E   0.86446  0.43223  0.25000
loop_
