data_act_Ia-3d  hall_number: 530, V_con: 6, EC_con: 3
_audit_creation_date              2025-03-06
_audit_creation_method            'MOFbuilder_1.0'
_symmetry_space_group_name_H-M    'P1'
_symmetry_Int_Tables_number       1
_symmetry_cell_setting            triclinic
loop_
_symmetry_equiv_pos_as_xyz
  x,y,z
_cell_length_a                    44.298500000000004
_cell_length_b                    44.298500000000004
_cell_length_c                    44.298500000000004
_cell_angle_alpha                 90.0
_cell_angle_beta                  90.0
_cell_angle_gamma                 90.0
loop_
_atom_site_label
_atom_site_type_symbol
_atom_site_fract_x
_atom_site_fract_y
_atom_site_fract_z
V1    V   0.00000  0.00000  0.00000
V2    V   0.00000  0.00000  0.50000
V3    V   0.00000  0.50000  0.00000
V4    V   0.00000  0.50000  0.50000
V5    V   0.25000  0.25000  0.25000
V6    V   0.25000  0.25000  0.75000
V7    V   0.25000  0.75000  0.25000
V8    V   0.25000  0.75000  0.75000
V9    V   0.50000  0.00000  0.00000
V10   V   0.50000  0.00000  0.50000
V11   V   0.50000  0.50000  0.00000
V12   V   0.50000  0.50000  0.50000
V13   V   0.75000  0.25000  0.25000
V14   V   0.75000  0.25000  0.75000
V15   V   0.75000  0.75000  0.25000
V16   V   0.75000  0.75000  0.75000
EC1    EC   0.07981  0.17019  0.62500
EC2    EC   0.07981  0.32981  0.12500
EC3    EC   0.07981  0.67019  0.37500
EC4    EC   0.07981  0.82981  0.87500
EC5    EC   0.07981  0.17019  0.62500
EC6    EC   0.07981  0.32981  0.12500
EC7    EC   0.07981  0.67019  0.37500
EC8    EC   0.07981  0.82981  0.87500
EC9    EC   0.12500  0.07981  0.32981
EC10   EC   0.12500  0.07981  0.32981
EC11   EC   0.12500  0.42019  0.82981
EC12   EC   0.12500  0.42019  0.82981
EC13   EC   0.12500  0.57981  0.67019
EC14   EC   0.12500  0.57981  0.67019
EC15   EC   0.12500  0.92019  0.17019
EC16   EC   0.12500  0.92019  0.17019
EC17   EC   0.17019  0.12500  0.92019
EC18   EC   0.17019  0.12500  0.92019
EC19   EC   0.17019  0.37500  0.42019
EC20   EC   0.17019  0.62500  0.07981
EC21   EC   0.17019  0.62500  0.07981
EC22   EC   0.17019  0.87500  0.57981
EC23   EC   0.17019  0.87500  0.57981
EC24   EC   0.32981  0.12500  0.07981
EC25   EC   0.32981  0.12500  0.07981
EC26   EC   0.32981  0.37500  0.57981
EC27   EC   0.32981  0.37500  0.57981
EC28   EC   0.32981  0.62500  0.92019
EC29   EC   0.32981  0.62500  0.92019
EC30   EC   0.32981  0.87500  0.42019
EC31   EC   0.37500  0.07981  0.67019
EC32   EC   0.37500  0.07981  0.67019
EC33   EC   0.37500  0.42019  0.17019
EC34   EC   0.37500  0.57981  0.32981
EC35   EC   0.37500  0.57981  0.32981
EC36   EC   0.37500  0.92019  0.82981
EC37   EC   0.37500  0.92019  0.82981
EC38   EC   0.42019  0.17019  0.37500
EC39   EC   0.42019  0.32981  0.87500
EC40   EC   0.42019  0.67019  0.62500
EC41   EC   0.42019  0.67019  0.62500
EC42   EC   0.42019  0.82981  0.12500
EC43   EC   0.42019  0.82981  0.12500
EC44   EC   0.57981  0.17019  0.87500
EC45   EC   0.57981  0.32981  0.37500
EC46   EC   0.57981  0.67019  0.12500
EC47   EC   0.57981  0.82981  0.62500
EC48   EC   0.57981  0.17019  0.87500
EC49   EC   0.57981  0.32981  0.37500
EC50   EC   0.57981  0.67019  0.12500
EC51   EC   0.57981  0.82981  0.62500
EC52   EC   0.62500  0.07981  0.17019
EC53   EC   0.62500  0.07981  0.17019
EC54   EC   0.62500  0.42019  0.67019
EC55   EC   0.62500  0.42019  0.67019
EC56   EC   0.62500  0.57981  0.82981
EC57   EC   0.62500  0.57981  0.82981
EC58   EC   0.62500  0.92019  0.32981
EC59   EC   0.62500  0.92019  0.32981
EC60   EC   0.67019  0.12500  0.57981
EC61   EC   0.67019  0.37500  0.07981
EC62   EC   0.67019  0.62500  0.42019
EC63   EC   0.67019  0.87500  0.92019
EC64   EC   0.67019  0.12500  0.57981
EC65   EC   0.67019  0.37500  0.07981
EC66   EC   0.67019  0.62500  0.42019
EC67   EC   0.67019  0.87500  0.92019
EC68   EC   0.82981  0.12500  0.42019
EC69   EC   0.82981  0.37500  0.92019
EC70   EC   0.82981  0.62500  0.57981
EC71   EC   0.82981  0.87500  0.07981
EC72   EC   0.82981  0.12500  0.42019
EC73   EC   0.82981  0.37500  0.92019
EC74   EC   0.82981  0.62500  0.57981
EC75   EC   0.82981  0.87500  0.07981
EC76   EC   0.87500  0.07981  0.82981
EC77   EC   0.87500  0.07981  0.82981
EC78   EC   0.87500  0.42019  0.32981
EC79   EC   0.87500  0.57981  0.17019
EC80   EC   0.87500  0.57981  0.17019
EC81   EC   0.87500  0.92019  0.67019
EC82   EC   0.87500  0.92019  0.67019
EC83   EC   0.92019  0.17019  0.12500
EC84   EC   0.92019  0.32981  0.62500
EC85   EC   0.92019  0.67019  0.87500
EC86   EC   0.92019  0.82981  0.37500
EC87   EC   0.92019  0.17019  0.12500
EC88   EC   0.92019  0.32981  0.62500
EC89   EC   0.92019  0.67019  0.87500
EC90   EC   0.92019  0.82981  0.37500
E1    E   0.00000  0.25000  0.12500
E2    E   0.00000  0.25000  0.62500
E3    E   0.00000  0.75000  0.37500
E4    E   0.00000  0.75000  0.87500
E5    E   0.03991  0.08509  0.56250
E6    E   0.03991  0.41491  0.06250
E7    E   0.03991  0.58509  0.43750
E8    E   0.03991  0.91491  0.93750
E9    E   0.06250  0.03991  0.41491
E10   E   0.06250  0.46009  0.91491
E11   E   0.06250  0.53991  0.58509
E12   E   0.06250  0.96009  0.08509
E13   E   0.08509  0.06250  0.96009
E14   E   0.08509  0.43750  0.46009
E15   E   0.08509  0.56250  0.03991
E16   E   0.08509  0.93750  0.53991
E17   E   0.12500  0.00000  0.25000
E18   E   0.12500  0.50000  0.75000
E19   E   0.16491  0.21009  0.68750
E20   E   0.16491  0.28991  0.18750
E21   E   0.16491  0.71009  0.31250
E22   E   0.16491  0.78991  0.81250
E23   E   0.18750  0.16491  0.28991
E24   E   0.18750  0.33509  0.78991
E25   E   0.18750  0.66491  0.71009
E26   E   0.18750  0.83509  0.21009
E27   E   0.21009  0.18750  0.83509
E28   E   0.21009  0.31250  0.33509
E29   E   0.21009  0.68750  0.16491
E30   E   0.21009  0.81250  0.66491
E31   E   0.25000  0.12500  0.00000
E32   E   0.25000  0.37500  0.50000
E33   E   0.25000  0.62500  0.00000
E34   E   0.25000  0.87500  0.50000
E35   E   0.28991  0.18750  0.16491
E36   E   0.28991  0.31250  0.66491
E37   E   0.28991  0.68750  0.83509
E38   E   0.28991  0.81250  0.33509
E39   E   0.31250  0.16491  0.71009
E40   E   0.31250  0.33509  0.21009
E41   E   0.31250  0.66491  0.28991
E42   E   0.31250  0.83509  0.78991
E43   E   0.33509  0.21009  0.31250
E44   E   0.33509  0.28991  0.81250
E45   E   0.33509  0.71009  0.68750
E46   E   0.33509  0.78991  0.18750
E47   E   0.37500  0.00000  0.75000
E48   E   0.37500  0.50000  0.25000
E49   E   0.41491  0.06250  0.03991
E50   E   0.41491  0.43750  0.53991
E51   E   0.41491  0.56250  0.96009
E52   E   0.41491  0.93750  0.46009
E53   E   0.43750  0.03991  0.58509
E54   E   0.43750  0.46009  0.08509
E55   E   0.43750  0.53991  0.41491
E56   E   0.43750  0.96009  0.91491
E57   E   0.46009  0.08509  0.43750
E58   E   0.46009  0.41491  0.93750
E59   E   0.46009  0.58509  0.56250
E60   E   0.46009  0.91491  0.06250
E61   E   0.50000  0.25000  0.37500
E62   E   0.50000  0.25000  0.87500
E63   E   0.50000  0.75000  0.12500
E64   E   0.50000  0.75000  0.62500
E65   E   0.53991  0.08509  0.93750
E66   E   0.53991  0.41491  0.43750
E67   E   0.53991  0.58509  0.06250
E68   E   0.53991  0.91491  0.56250
E69   E   0.56250  0.03991  0.08509
E70   E   0.56250  0.46009  0.58509
E71   E   0.56250  0.53991  0.91491
E72   E   0.56250  0.96009  0.41491
E73   E   0.58509  0.06250  0.53991
E74   E   0.58509  0.43750  0.03991
E75   E   0.58509  0.56250  0.46009
E76   E   0.58509  0.93750  0.96009
E77   E   0.62500  0.00000  0.25000
E78   E   0.62500  0.50000  0.75000
E79   E   0.66491  0.21009  0.81250
E80   E   0.66491  0.28991  0.31250
E81   E   0.66491  0.71009  0.18750
E82   E   0.66491  0.78991  0.68750
E83   E   0.68750  0.16491  0.21009
E84   E   0.68750  0.33509  0.71009
E85   E   0.68750  0.66491  0.78991
E86   E   0.68750  0.83509  0.28991
E87   E   0.71009  0.18750  0.66491
E88   E   0.71009  0.31250  0.16491
E89   E   0.71009  0.68750  0.33509
E90   E   0.71009  0.81250  0.83509
E91   E   0.75000  0.12500  0.50000
E92   E   0.75000  0.37500  0.00000
E93   E   0.75000  0.62500  0.50000
E94   E   0.75000  0.87500  0.00000
E95   E   0.78991  0.18750  0.33509
E96   E   0.78991  0.31250  0.83509
E97   E   0.78991  0.68750  0.66491
E98   E   0.78991  0.81250  0.16491
E99   E   0.81250  0.16491  0.78991
E100  E   0.81250  0.33509  0.28991
E101  E   0.81250  0.66491  0.21009
E102  E   0.81250  0.83509  0.71009
E103  E   0.83509  0.21009  0.18750
E104  E   0.83509  0.28991  0.68750
E105  E   0.83509  0.71009  0.81250
E106  E   0.83509  0.78991  0.31250
E107  E   0.87500  0.00000  0.75000
E108  E   0.87500  0.50000  0.25000
E109  E   0.91491  0.06250  0.46009
E110  E   0.91491  0.43750  0.96009
E111  E   0.91491  0.56250  0.53991
E112  E   0.91491  0.93750  0.03991
E113  E   0.93750  0.03991  0.91491
E114  E   0.93750  0.46009  0.41491
E115  E   0.93750  0.53991  0.08509
E116  E   0.93750  0.96009  0.58509
E117  E   0.96009  0.08509  0.06250
E118  E   0.96009  0.41491  0.56250
E119  E   0.96009  0.58509  0.93750
E120  E   0.96009  0.91491  0.43750
loop_
