data_afi_P6/mcc  hall_number: 486, V_con: 4
_audit_creation_date              2025-03-06
_audit_creation_method            'MOFbuilder_1.0'
_symmetry_space_group_name_H-M    'P1'
_symmetry_Int_Tables_number       1
_symmetry_cell_setting            triclinic
loop_
_symmetry_equiv_pos_as_xyz
  x,y,z
_cell_length_a                    44.5269
_cell_length_b                    44.5269
_cell_length_c                    26.770200000000003
_cell_angle_alpha                 90.0
_cell_angle_beta                  90.0
_cell_angle_gamma                 120.0
loop_
_atom_site_label
_atom_site_type_symbol
_atom_site_fract_x
_atom_site_fract_y
_atom_site_fract_z
V1    V   0.12201  0.45534  0.31323
V2    V   0.12201  0.45534  0.68677
V3    V   0.12201  0.66667  0.18677
V4    V   0.12201  0.66667  0.81323
V5    V   0.33333  0.45534  0.18677
V6    V   0.33333  0.45534  0.81323
V7    V   0.33333  0.87799  0.31323
V8    V   0.33333  0.87799  0.68677
V9    V   0.45534  0.12201  0.18677
V10   V   0.45534  0.12201  0.81323
V11   V   0.45534  0.33333  0.31323
V12   V   0.45534  0.33333  0.68677
V13   V   0.54466  0.66667  0.31323
V14   V   0.54466  0.66667  0.68677
V15   V   0.54466  0.87799  0.18677
V16   V   0.54466  0.87799  0.81323
V17   V   0.66667  0.12201  0.31323
V18   V   0.66667  0.12201  0.68677
V19   V   0.66667  0.54466  0.18677
V20   V   0.66667  0.54466  0.81323
V21   V   0.87799  0.33333  0.18677
V22   V   0.87799  0.33333  0.81323
V23   V   0.87799  0.54466  0.31323
V24   V   0.87799  0.54466  0.68677
E1    E   0.00000  0.39434  0.25000
E2    E   0.00000  0.39434  0.75000
E3    E   0.00000  0.60566  0.25000
E4    E   0.00000  0.60566  0.75000
E5    E   0.12201  0.45534  0.50000
E6    E   0.12201  0.56100  0.25000
E7    E   0.12201  0.56100  0.75000
E8    E   0.12201  0.56101  0.25000
E9    E   0.12201  0.56101  0.75000
E10   E   0.12201  0.66667  0.00000
E11   E   0.22767  0.45534  0.25000
E12   E   0.22767  0.45534  0.75000
E13   E   0.22767  0.77233  0.25000
E14   E   0.22767  0.77233  0.75000
E15   E   0.33333  0.45534  0.00000
E16   E   0.33333  0.87799  0.50000
E17   E   0.39434  0.00000  0.25000
E18   E   0.39434  0.00000  0.75000
E19   E   0.39434  0.39434  0.25000
E20   E   0.39434  0.39434  0.75000
E21   E   0.43899  0.56100  0.25000
E22   E   0.43899  0.56100  0.75000
E23   E   0.43899  0.87799  0.25000
E24   E   0.43899  0.87799  0.75000
E25   E   0.43900  0.56101  0.25000
E26   E   0.43900  0.56101  0.75000
E27   E   0.43900  0.87799  0.25000
E28   E   0.43900  0.87799  0.75000
E29   E   0.45534  0.12201  0.00000
E30   E   0.45534  0.22767  0.25000
E31   E   0.45534  0.22767  0.75000
E32   E   0.45534  0.33333  0.50000
E33   E   0.54466  0.66667  0.50000
E34   E   0.54466  0.77233  0.25000
E35   E   0.54466  0.77233  0.75000
E36   E   0.54466  0.87799  0.00000
E37   E   0.56100  0.12201  0.25000
E38   E   0.56100  0.12201  0.75000
E39   E   0.56100  0.43899  0.25000
E40   E   0.56100  0.43899  0.75000
E41   E   0.56101  0.12201  0.25000
E42   E   0.56101  0.12201  0.75000
E43   E   0.56101  0.43900  0.25000
E44   E   0.56101  0.43900  0.75000
E45   E   0.60566  0.00000  0.25000
E46   E   0.60566  0.00000  0.75000
E47   E   0.60566  0.60566  0.25000
E48   E   0.60566  0.60566  0.75000
E49   E   0.66667  0.12201  0.50000
E50   E   0.66667  0.54466  0.00000
E51   E   0.77233  0.22767  0.25000
E52   E   0.77233  0.22767  0.75000
E53   E   0.77233  0.54466  0.25000
E54   E   0.77233  0.54466  0.75000
E55   E   0.87799  0.33333  0.00000
E56   E   0.87799  0.43899  0.25000
E57   E   0.87799  0.43899  0.75000
E58   E   0.87799  0.43900  0.25000
E59   E   0.87799  0.43900  0.75000
E60   E   0.87799  0.54466  0.50000
loop_
