data_afw-a_R32:H  hall_number: 445, V_con: 4, EC_con: 4
_audit_creation_date              2025-03-06
_audit_creation_method            'MOFbuilder_1.0'
_symmetry_space_group_name_H-M    'P1'
_symmetry_Int_Tables_number       1
_symmetry_cell_setting            triclinic
loop_
_symmetry_equiv_pos_as_xyz
  x,y,z
_cell_length_a                    60.6203
_cell_length_b                    60.6203
_cell_length_c                    50.652699999999996
_cell_angle_alpha                 90.0
_cell_angle_beta                  90.0
_cell_angle_gamma                 120.0
loop_
_atom_site_label
_atom_site_type_symbol
_atom_site_fract_x
_atom_site_fract_y
_atom_site_fract_z
V1    V   0.01955  0.09661  0.26624
V2    V   0.09661  0.26624  0.01955
V3    V   0.26624  0.01955  0.09661
V4    V   0.73376  0.90339  0.98045
V5    V   0.90339  0.98045  0.73376
V6    V   0.98045  0.73376  0.90339
EC1    EC   0.02026  0.09321  0.18642
EC2    EC   0.09321  0.18642  0.02026
EC3    EC   0.18642  0.02026  0.09321
EC4    EC   0.81358  0.90679  0.97974
EC5    EC   0.90679  0.97974  0.81358
EC6    EC   0.97974  0.81358  0.90679
E1    E   0.00000  0.00000  0.13982
E2    E   0.00000  0.00000  0.25646
E3    E   0.00000  0.00000  0.74354
E4    E   0.00000  0.00000  0.86018
E5    E   0.00000  0.13982  0.00000
E6    E   0.00000  0.13982  0.13982
E7    E   0.00000  0.25646  0.00000
E8    E   0.00000  0.74354  0.00000
E9    E   0.00000  0.86018  0.00000
E10   E   0.00000  0.86018  0.86018
E11   E   0.03683  0.21655  0.05844
E12   E   0.03817  0.77367  0.94362
E13   E   0.05310  0.16667  0.33333
E14   E   0.05638  0.22633  0.96183
E15   E   0.05844  0.03683  0.21655
E16   E   0.13982  0.00000  0.00000
E17   E   0.13982  0.00000  0.13982
E18   E   0.13982  0.13982  0.00000
E19   E   0.16667  0.33333  0.05310
E20   E   0.21655  0.05844  0.03683
E21   E   0.22633  0.96183  0.05638
E22   E   0.25646  0.00000  0.00000
E23   E   0.33333  0.05310  0.16667
E24   E   0.66667  0.83333  0.94690
E25   E   0.74354  0.00000  0.00000
E26   E   0.77367  0.94362  0.03817
E27   E   0.78345  0.96317  0.94156
E28   E   0.83333  0.94690  0.66667
E29   E   0.86018  0.00000  0.00000
E30   E   0.86018  0.00000  0.86018
E31   E   0.86018  0.86018  0.00000
E32   E   0.94156  0.78345  0.96317
E33   E   0.94362  0.03817  0.77367
E34   E   0.94690  0.66667  0.83333
E35   E   0.96183  0.05638  0.22633
E36   E   0.96317  0.94156  0.78345
loop_
