data_afx_P63/mmc  hall_number: 488, V_con: 4, EC_con: 4
_audit_creation_date              2025-03-06
_audit_creation_method            'MOFbuilder_1.0'
_symmetry_space_group_name_H-M    'P1'
_symmetry_Int_Tables_number       1
_symmetry_cell_setting            triclinic
loop_
_symmetry_equiv_pos_as_xyz
  x,y,z
_cell_length_a                    43.6631
_cell_length_b                    43.6631
_cell_length_c                    64.5839
_cell_angle_alpha                 90.0
_cell_angle_beta                  90.0
_cell_angle_gamma                 120.0
loop_
_atom_site_label
_atom_site_type_symbol
_atom_site_fract_x
_atom_site_fract_y
_atom_site_fract_z
V1    V   0.00000  0.22903  0.07742
V2    V   0.00000  0.22903  0.42258
V3    V   0.00000  0.22903  0.57742
V4    V   0.00000  0.22903  0.92258
V5    V   0.00000  0.77097  0.07742
V6    V   0.00000  0.77097  0.42258
V7    V   0.00000  0.77097  0.57742
V8    V   0.00000  0.77097  0.92258
V9    V   0.22903  0.00000  0.07742
V10   V   0.22903  0.00000  0.42258
V11   V   0.22903  0.00000  0.57742
V12   V   0.22903  0.00000  0.92258
V13   V   0.22903  0.22903  0.07742
V14   V   0.22903  0.22903  0.42258
V15   V   0.22903  0.22903  0.57742
V16   V   0.22903  0.22903  0.92258
V17   V   0.77097  0.00000  0.07742
V18   V   0.77097  0.00000  0.42258
V19   V   0.77097  0.00000  0.57742
V20   V   0.77097  0.00000  0.92258
V21   V   0.77097  0.77097  0.07742
V22   V   0.77097  0.77097  0.42258
V23   V   0.77097  0.77097  0.57742
V24   V   0.77097  0.77097  0.92258
EC1    EC   0.10431  0.43764  0.67258
EC2    EC   0.10431  0.43764  0.82742
EC3    EC   0.10431  0.66667  0.67258
EC4    EC   0.10431  0.66667  0.82742
EC5    EC   0.33333  0.43764  0.67258
EC6    EC   0.33333  0.43764  0.82742
EC7    EC   0.33333  0.89569  0.67258
EC8    EC   0.33333  0.89569  0.82742
EC9    EC   0.43764  0.10431  0.17258
EC10   EC   0.43764  0.10431  0.32742
EC11   EC   0.43764  0.33333  0.17258
EC12   EC   0.43764  0.33333  0.32742
EC13   EC   0.56236  0.66667  0.67258
EC14   EC   0.56236  0.66667  0.82742
EC15   EC   0.56236  0.89569  0.67258
EC16   EC   0.56236  0.89569  0.82742
EC17   EC   0.66667  0.10431  0.17258
EC18   EC   0.66667  0.10431  0.32742
EC19   EC   0.66667  0.56236  0.17258
EC20   EC   0.66667  0.56236  0.32742
EC21   EC   0.89569  0.33333  0.17258
EC22   EC   0.89569  0.33333  0.32742
EC23   EC   0.89569  0.56236  0.17258
EC24   EC   0.89569  0.56236  0.32742
E1    E   0.00000  0.22903  0.00000
E2    E   0.00000  0.22903  0.50000
E3    E   0.00000  0.77097  0.00000
E4    E   0.00000  0.77097  0.50000
E5    E   0.05215  0.33333  0.62500
E6    E   0.05215  0.33333  0.87500
E7    E   0.05215  0.71882  0.62500
E8    E   0.05215  0.71882  0.87500
E9    E   0.10431  0.43764  0.75000
E10   E   0.10431  0.55215  0.67258
E11   E   0.10431  0.55215  0.82742
E12   E   0.10431  0.55216  0.67258
E13   E   0.10431  0.55216  0.82742
E14   E   0.10431  0.66667  0.75000
E15   E   0.11451  0.22902  0.57742
E16   E   0.11451  0.22902  0.92258
E17   E   0.11451  0.22903  0.07742
E18   E   0.11451  0.22903  0.42258
E19   E   0.11451  0.88548  0.07742
E20   E   0.11451  0.88548  0.42258
E21   E   0.11451  0.88549  0.57742
E22   E   0.11451  0.88549  0.92258
E23   E   0.11452  0.22903  0.07742
E24   E   0.11452  0.22903  0.42258
E25   E   0.11452  0.88549  0.07742
E26   E   0.11452  0.88549  0.42258
E27   E   0.21882  0.43764  0.67258
E28   E   0.21882  0.43764  0.82742
E29   E   0.21882  0.78118  0.67258
E30   E   0.21882  0.78118  0.82742
E31   E   0.22902  0.11451  0.07742
E32   E   0.22902  0.11451  0.42258
E33   E   0.22903  0.00000  0.00000
E34   E   0.22903  0.00000  0.50000
E35   E   0.22903  0.11451  0.57742
E36   E   0.22903  0.11451  0.92258
E37   E   0.22903  0.11452  0.57742
E38   E   0.22903  0.11452  0.92258
E39   E   0.22903  0.22903  0.00000
E40   E   0.22903  0.22903  0.50000
E41   E   0.28118  0.33333  0.62500
E42   E   0.28118  0.33333  0.87500
E43   E   0.28118  0.94785  0.62500
E44   E   0.28118  0.94785  0.87500
E45   E   0.33333  0.43764  0.75000
E46   E   0.33333  0.89569  0.75000
E47   E   0.33333  0.05215  0.12500
E48   E   0.33333  0.05215  0.37500
E49   E   0.33333  0.28118  0.12500
E50   E   0.33333  0.28118  0.37500
E51   E   0.43764  0.10431  0.25000
E52   E   0.43764  0.21882  0.17258
E53   E   0.43764  0.21882  0.32742
E54   E   0.43764  0.33333  0.25000
E55   E   0.44784  0.55215  0.67258
E56   E   0.44784  0.55215  0.82742
E57   E   0.44784  0.89569  0.67258
E58   E   0.44784  0.89569  0.82742
E59   E   0.44785  0.55216  0.67258
E60   E   0.44785  0.55216  0.82742
E61   E   0.44785  0.89569  0.67258
E62   E   0.44785  0.89569  0.82742
E63   E   0.55215  0.10431  0.17258
E64   E   0.55215  0.10431  0.32742
E65   E   0.55215  0.44784  0.17258
E66   E   0.55215  0.44784  0.32742
E67   E   0.55216  0.10431  0.17258
E68   E   0.55216  0.10431  0.32742
E69   E   0.55216  0.44785  0.17258
E70   E   0.55216  0.44785  0.32742
E71   E   0.56236  0.66667  0.75000
E72   E   0.56236  0.78118  0.67258
E73   E   0.56236  0.78118  0.82742
E74   E   0.56236  0.89569  0.75000
E75   E   0.66667  0.71882  0.62500
E76   E   0.66667  0.71882  0.87500
E77   E   0.66667  0.94785  0.62500
E78   E   0.66667  0.94785  0.87500
E79   E   0.66667  0.10431  0.25000
E80   E   0.66667  0.56236  0.25000
E81   E   0.71882  0.05215  0.12500
E82   E   0.71882  0.05215  0.37500
E83   E   0.71882  0.66667  0.12500
E84   E   0.71882  0.66667  0.37500
E85   E   0.77097  0.00000  0.00000
E86   E   0.77097  0.00000  0.50000
E87   E   0.77097  0.77097  0.00000
E88   E   0.77097  0.77097  0.50000
E89   E   0.77097  0.88548  0.07742
E90   E   0.77097  0.88548  0.42258
E91   E   0.77097  0.88549  0.07742
E92   E   0.77097  0.88549  0.42258
E93   E   0.77098  0.88549  0.57742
E94   E   0.77098  0.88549  0.92258
E95   E   0.78118  0.21882  0.17258
E96   E   0.78118  0.21882  0.32742
E97   E   0.78118  0.56236  0.17258
E98   E   0.78118  0.56236  0.32742
E99   E   0.88548  0.11451  0.57742
E100  E   0.88548  0.11451  0.92258
E101  E   0.88548  0.77097  0.57742
E102  E   0.88548  0.77097  0.92258
E103  E   0.88549  0.11451  0.07742
E104  E   0.88549  0.11451  0.42258
E105  E   0.88549  0.11452  0.57742
E106  E   0.88549  0.11452  0.92258
E107  E   0.88549  0.77097  0.57742
E108  E   0.88549  0.77097  0.92258
E109  E   0.88549  0.77098  0.07742
E110  E   0.88549  0.77098  0.42258
E111  E   0.89569  0.33333  0.25000
E112  E   0.89569  0.44784  0.17258
E113  E   0.89569  0.44784  0.32742
E114  E   0.89569  0.44785  0.17258
E115  E   0.89569  0.44785  0.32742
E116  E   0.89569  0.56236  0.25000
E117  E   0.94785  0.28118  0.12500
E118  E   0.94785  0.28118  0.37500
E119  E   0.94785  0.66667  0.12500
E120  E   0.94785  0.66667  0.37500
loop_
