data_afy_P-31m  hall_number: 454, V_con: 4, EC_con: 4
_audit_creation_date              2025-03-06
_audit_creation_method            'MOFbuilder_1.0'
_symmetry_space_group_name_H-M    'P1'
_symmetry_Int_Tables_number       1
_symmetry_cell_setting            triclinic
loop_
_symmetry_equiv_pos_as_xyz
  x,y,z
_cell_length_a                    41.2518
_cell_length_b                    41.2518
_cell_length_c                    28.0913
_cell_angle_alpha                 90.0
_cell_angle_beta                  90.0
_cell_angle_gamma                 120.0
loop_
_atom_site_label
_atom_site_type_symbol
_atom_site_fract_x
_atom_site_fract_y
_atom_site_fract_z
V1    V   0.13996  0.47329  0.39266
V2    V   0.13996  0.66667  0.60734
V3    V   0.33333  0.47329  0.60734
V4    V   0.33333  0.86004  0.39266
V5    V   0.47329  0.13996  0.39266
V6    V   0.47329  0.33333  0.60734
V7    V   0.52671  0.66667  0.39266
V8    V   0.52671  0.86004  0.60734
V9    V   0.66667  0.13996  0.60734
V10   V   0.66667  0.52671  0.39266
V11   V   0.86004  0.33333  0.39266
V12   V   0.86004  0.52671  0.60734
EC1    EC   0.33333  0.66666  0.17799
EC2    EC   0.33333  0.66666  0.82201
EC3    EC   0.33333  0.66667  0.17799
EC4    EC   0.33333  0.66667  0.82201
EC5    EC   0.33334  0.66667  0.17799
EC6    EC   0.33334  0.66667  0.82201
EC7    EC   0.66666  0.33333  0.17799
EC8    EC   0.66666  0.33333  0.82201
EC9    EC   0.66667  0.33333  0.17799
EC10   EC   0.66667  0.33333  0.82201
EC11   EC   0.66667  0.33334  0.17799
EC12   EC   0.66667  0.33334  0.82201
E1    E   0.00000  0.40331  0.39266
E2    E   0.00000  0.59669  0.60734
E3    E   0.13996  0.56998  0.50000
E4    E   0.13996  0.56998  0.50000
E5    E   0.23664  0.47329  0.50000
E6    E   0.23664  0.76335  0.50000
E7    E   0.23665  0.47329  0.50000
E8    E   0.23665  0.56998  0.28533
E9    E   0.23665  0.66667  0.71467
E10   E   0.23665  0.76336  0.50000
E11   E   0.33333  0.56998  0.71467
E12   E   0.33333  0.66666  0.00000
E13   E   0.33333  0.66667  0.00000
E14   E   0.33333  0.76335  0.28533
E15   E   0.33334  0.66667  0.00000
E16   E   0.40331  0.00000  0.39266
E17   E   0.40331  0.40331  0.60734
E18   E   0.43002  0.56998  0.50000
E19   E   0.43002  0.66667  0.28533
E20   E   0.43002  0.76335  0.71467
E21   E   0.43002  0.86004  0.50000
E22   E   0.43002  0.56998  0.50000
E23   E   0.43002  0.86004  0.50000
E24   E   0.47329  0.23664  0.50000
E25   E   0.47329  0.23665  0.50000
E26   E   0.52671  0.76335  0.50000
E27   E   0.52671  0.76336  0.50000
E28   E   0.56998  0.13996  0.50000
E29   E   0.56998  0.43002  0.50000
E30   E   0.56998  0.13996  0.50000
E31   E   0.56998  0.23665  0.28533
E32   E   0.56998  0.33333  0.71467
E33   E   0.56998  0.43002  0.50000
E34   E   0.59669  0.00000  0.60734
E35   E   0.59669  0.59669  0.39266
E36   E   0.66666  0.33333  0.00000
E37   E   0.66667  0.23665  0.71467
E38   E   0.66667  0.33333  0.00000
E39   E   0.66667  0.33334  0.00000
E40   E   0.66667  0.43002  0.28533
E41   E   0.76335  0.23664  0.50000
E42   E   0.76335  0.33333  0.28533
E43   E   0.76335  0.43002  0.71467
E44   E   0.76335  0.52671  0.50000
E45   E   0.76336  0.23665  0.50000
E46   E   0.76336  0.52671  0.50000
E47   E   0.86004  0.43002  0.50000
E48   E   0.86004  0.43002  0.50000
loop_
