data_aht_Cmcm  hall_number: 298, V_con: 4, EC_con: 4
_audit_creation_date              2025-03-06
_audit_creation_method            'MOFbuilder_1.0'
_symmetry_space_group_name_H-M    'P1'
_symmetry_Int_Tables_number       1
_symmetry_cell_setting            triclinic
loop_
_symmetry_equiv_pos_as_xyz
  x,y,z
_cell_length_a                    48.634899999999995
_cell_length_b                    34.2569
_cell_length_c                    26.6432
_cell_angle_alpha                 90.0
_cell_angle_beta                  90.0
_cell_angle_gamma                 90.0
loop_
_atom_site_label
_atom_site_type_symbol
_atom_site_fract_x
_atom_site_fract_y
_atom_site_fract_z
V1    V   0.19394  0.36233  0.56233
V2    V   0.19394  0.36233  0.93767
V3    V   0.19394  0.63767  0.06233
V4    V   0.19394  0.63767  0.43767
V5    V   0.30606  0.13767  0.06233
V6    V   0.30606  0.13767  0.43767
V7    V   0.30606  0.86233  0.56233
V8    V   0.30606  0.86233  0.93767
V9    V   0.69394  0.13767  0.06233
V10   V   0.69394  0.13767  0.43767
V11   V   0.69394  0.86233  0.56233
V12   V   0.69394  0.86233  0.93767
V13   V   0.80606  0.36233  0.56233
V14   V   0.80606  0.36233  0.93767
V15   V   0.80606  0.63767  0.06233
V16   V   0.80606  0.63767  0.43767
EC1    EC   0.00000  0.36233  0.06233
EC2    EC   0.00000  0.36233  0.43767
EC3    EC   0.00000  0.63767  0.56233
EC4    EC   0.00000  0.63767  0.93767
EC5    EC   0.50000  0.13767  0.56233
EC6    EC   0.50000  0.13767  0.93767
EC7    EC   0.50000  0.86233  0.06233
EC8    EC   0.50000  0.86233  0.43767
E1    E   0.00000  0.36233  0.25000
E2    E   0.00000  0.50000  0.00000
E3    E   0.00000  0.50000  0.50000
E4    E   0.00000  0.63767  0.75000
E5    E   0.09697  0.36233  0.00000
E6    E   0.09697  0.36233  0.50000
E7    E   0.09697  0.63767  0.00000
E8    E   0.09697  0.63767  0.50000
E9    E   0.19394  0.36233  0.75000
E10   E   0.19394  0.50000  0.00000
E11   E   0.19394  0.50000  0.50000
E12   E   0.19394  0.63767  0.25000
E13   E   0.25000  0.25000  0.00000
E14   E   0.25000  0.25000  0.50000
E15   E   0.25000  0.75000  0.00000
E16   E   0.25000  0.75000  0.50000
E17   E   0.30606  0.00000  0.00000
E18   E   0.30606  0.00000  0.50000
E19   E   0.30606  0.13767  0.25000
E20   E   0.30606  0.86233  0.75000
E21   E   0.40303  0.13767  0.00000
E22   E   0.40303  0.13767  0.50000
E23   E   0.40303  0.86233  0.00000
E24   E   0.40303  0.86233  0.50000
E25   E   0.50000  0.00000  0.00000
E26   E   0.50000  0.00000  0.50000
E27   E   0.50000  0.13767  0.75000
E28   E   0.50000  0.86233  0.25000
E29   E   0.59697  0.13767  0.00000
E30   E   0.59697  0.13767  0.50000
E31   E   0.59697  0.86233  0.00000
E32   E   0.59697  0.86233  0.50000
E33   E   0.69394  0.00000  0.00000
E34   E   0.69394  0.00000  0.50000
E35   E   0.69394  0.13767  0.25000
E36   E   0.69394  0.86233  0.75000
E37   E   0.75000  0.25000  0.00000
E38   E   0.75000  0.25000  0.50000
E39   E   0.75000  0.75000  0.00000
E40   E   0.75000  0.75000  0.50000
E41   E   0.80606  0.36233  0.75000
E42   E   0.80606  0.50000  0.00000
E43   E   0.80606  0.50000  0.50000
E44   E   0.80606  0.63767  0.25000
E45   E   0.90303  0.36233  0.00000
E46   E   0.90303  0.36233  0.50000
E47   E   0.90303  0.63767  0.00000
E48   E   0.90303  0.63767  0.50000
loop_
