data_ana-f_Ia-3d  hall_number: 530, V_con: 3, EC_con: 3
_audit_creation_date              2025-03-06
_audit_creation_method            'MOFbuilder_1.0'
_symmetry_space_group_name_H-M    'P1'
_symmetry_Int_Tables_number       1
_symmetry_cell_setting            triclinic
loop_
_symmetry_equiv_pos_as_xyz
  x,y,z
_cell_length_a                    10.25596
_cell_length_b                    10.25596
_cell_length_c                    10.25596
_cell_angle_alpha                 90.0
_cell_angle_beta                  90.0
_cell_angle_gamma                 90.0
loop_
_atom_site_label
_atom_site_type_symbol
_atom_site_fract_x
_atom_site_fract_y
_atom_site_fract_z
V1    V   0.05944  0.15026  0.40635
V2    V   0.05944  0.34974  0.90635
V3    V   0.05944  0.65026  0.59365
V4    V   0.05944  0.84974  0.09365
V5    V   0.09365  0.05944  0.84974
V6    V   0.09365  0.44056  0.34974
V7    V   0.09365  0.55944  0.15026
V8    V   0.09365  0.94056  0.65026
V9    V   0.09974  0.19056  0.84365
V10   V   0.09974  0.30944  0.34365
V11   V   0.09974  0.69056  0.15635
V12   V   0.09974  0.80944  0.65635
V13   V   0.15026  0.09365  0.55944
V14   V   0.15026  0.40635  0.05944
V15   V   0.15026  0.59365  0.44056
V16   V   0.15026  0.90635  0.94056
V17   V   0.15635  0.09974  0.69056
V18   V   0.15635  0.40026  0.19056
V19   V   0.15635  0.59974  0.30944
V20   V   0.15635  0.90026  0.80944
V21   V   0.19056  0.15635  0.40026
V22   V   0.19056  0.34365  0.90026
V23   V   0.19056  0.65635  0.59974
V24   V   0.19056  0.84365  0.09974
V25   V   0.30944  0.15635  0.59974
V26   V   0.30944  0.34365  0.09974
V27   V   0.30944  0.65635  0.40026
V28   V   0.30944  0.84365  0.90026
V29   V   0.34365  0.09974  0.30944
V30   V   0.34365  0.40026  0.80944
V31   V   0.34365  0.59974  0.69056
V32   V   0.34365  0.90026  0.19056
V33   V   0.34974  0.09365  0.44056
V34   V   0.34974  0.40635  0.94056
V35   V   0.34974  0.59365  0.55944
V36   V   0.34974  0.90635  0.05944
V37   V   0.40026  0.19056  0.15635
V38   V   0.40026  0.30944  0.65635
V39   V   0.40026  0.69056  0.84365
V40   V   0.40026  0.80944  0.34365
V41   V   0.40635  0.05944  0.15026
V42   V   0.40635  0.44056  0.65026
V43   V   0.40635  0.55944  0.84974
V44   V   0.40635  0.94056  0.34974
V45   V   0.44056  0.15026  0.59365
V46   V   0.44056  0.34974  0.09365
V47   V   0.44056  0.65026  0.40635
V48   V   0.44056  0.84974  0.90635
V49   V   0.55944  0.15026  0.09365
V50   V   0.55944  0.34974  0.59365
V51   V   0.55944  0.65026  0.90635
V52   V   0.55944  0.84974  0.40635
V53   V   0.59365  0.05944  0.65026
V54   V   0.59365  0.44056  0.15026
V55   V   0.59365  0.55944  0.34974
V56   V   0.59365  0.94056  0.84974
V57   V   0.59974  0.19056  0.65635
V58   V   0.59974  0.30944  0.15635
V59   V   0.59974  0.69056  0.34365
V60   V   0.59974  0.80944  0.84365
V61   V   0.65026  0.09365  0.94056
V62   V   0.65026  0.40635  0.44056
V63   V   0.65026  0.59365  0.05944
V64   V   0.65026  0.90635  0.55944
V65   V   0.65635  0.09974  0.80944
V66   V   0.65635  0.40026  0.30944
V67   V   0.65635  0.59974  0.19056
V68   V   0.65635  0.90026  0.69056
V69   V   0.69056  0.15635  0.09974
V70   V   0.69056  0.34365  0.59974
V71   V   0.69056  0.65635  0.90026
V72   V   0.69056  0.84365  0.40026
V73   V   0.80944  0.15635  0.90026
V74   V   0.80944  0.34365  0.40026
V75   V   0.80944  0.65635  0.09974
V76   V   0.80944  0.84365  0.59974
V77   V   0.84365  0.09974  0.19056
V78   V   0.84365  0.40026  0.69056
V79   V   0.84365  0.59974  0.80944
V80   V   0.84365  0.90026  0.30944
V81   V   0.84974  0.09365  0.05944
V82   V   0.84974  0.40635  0.55944
V83   V   0.84974  0.59365  0.94056
V84   V   0.84974  0.90635  0.44056
V85   V   0.90026  0.19056  0.34365
V86   V   0.90026  0.30944  0.84365
V87   V   0.90026  0.69056  0.65635
V88   V   0.90026  0.80944  0.15635
V89   V   0.90635  0.05944  0.34974
V90   V   0.90635  0.44056  0.84974
V91   V   0.90635  0.55944  0.65026
V92   V   0.90635  0.94056  0.15026
V93   V   0.94056  0.15026  0.90635
V94   V   0.94056  0.34974  0.40635
V95   V   0.94056  0.65026  0.09365
V96   V   0.94056  0.84974  0.59365
EC1    EC   0.02959  0.12931  0.87255
EC2    EC   0.02959  0.37069  0.37255
EC3    EC   0.02959  0.62931  0.12745
EC4    EC   0.02959  0.87069  0.62745
EC5    EC   0.12069  0.22041  0.37745
EC6    EC   0.12069  0.27959  0.87745
EC7    EC   0.12069  0.72041  0.62255
EC8    EC   0.12069  0.77959  0.12255
EC9    EC   0.12255  0.12069  0.77959
EC10   EC   0.12255  0.37931  0.27959
EC11   EC   0.12255  0.62069  0.22041
EC12   EC   0.12255  0.87931  0.72041
EC13   EC   0.12745  0.02959  0.62931
EC14   EC   0.12745  0.47041  0.12931
EC15   EC   0.12745  0.52959  0.37069
EC16   EC   0.12745  0.97041  0.87069
EC17   EC   0.12931  0.12745  0.47041
EC18   EC   0.12931  0.37255  0.97041
EC19   EC   0.12931  0.62745  0.52959
EC20   EC   0.12931  0.87255  0.02959
EC21   EC   0.22041  0.12255  0.62069
EC22   EC   0.22041  0.37745  0.12069
EC23   EC   0.22041  0.62255  0.37931
EC24   EC   0.22041  0.87745  0.87931
EC25   EC   0.27959  0.12255  0.37931
EC26   EC   0.27959  0.37745  0.87931
EC27   EC   0.27959  0.62255  0.62069
EC28   EC   0.27959  0.87745  0.12069
EC29   EC   0.37069  0.12745  0.52959
EC30   EC   0.37069  0.37255  0.02959
EC31   EC   0.37069  0.62745  0.47041
EC32   EC   0.37069  0.87255  0.97041
EC33   EC   0.37255  0.02959  0.37069
EC34   EC   0.37255  0.47041  0.87069
EC35   EC   0.37255  0.52959  0.62931
EC36   EC   0.37255  0.97041  0.12931
EC37   EC   0.37745  0.12069  0.22041
EC38   EC   0.37745  0.37931  0.72041
EC39   EC   0.37745  0.62069  0.77959
EC40   EC   0.37745  0.87931  0.27959
EC41   EC   0.37931  0.22041  0.62255
EC42   EC   0.37931  0.27959  0.12255
EC43   EC   0.37931  0.72041  0.37745
EC44   EC   0.37931  0.77959  0.87745
EC45   EC   0.47041  0.12931  0.12745
EC46   EC   0.47041  0.37069  0.62745
EC47   EC   0.47041  0.62931  0.87255
EC48   EC   0.47041  0.87069  0.37255
EC49   EC   0.52959  0.12931  0.62745
EC50   EC   0.52959  0.37069  0.12745
EC51   EC   0.52959  0.62931  0.37255
EC52   EC   0.52959  0.87069  0.87255
EC53   EC   0.62069  0.22041  0.12255
EC54   EC   0.62069  0.27959  0.62255
EC55   EC   0.62069  0.72041  0.87745
EC56   EC   0.62069  0.77959  0.37745
EC57   EC   0.62255  0.12069  0.72041
EC58   EC   0.62255  0.37931  0.22041
EC59   EC   0.62255  0.62069  0.27959
EC60   EC   0.62255  0.87931  0.77959
EC61   EC   0.62745  0.02959  0.87069
EC62   EC   0.62745  0.47041  0.37069
EC63   EC   0.62745  0.52959  0.12931
EC64   EC   0.62745  0.97041  0.62931
EC65   EC   0.62931  0.12745  0.02959
EC66   EC   0.62931  0.37255  0.52959
EC67   EC   0.62931  0.62745  0.97041
EC68   EC   0.62931  0.87255  0.47041
EC69   EC   0.72041  0.12255  0.87931
EC70   EC   0.72041  0.37745  0.37931
EC71   EC   0.72041  0.62255  0.12069
EC72   EC   0.72041  0.87745  0.62069
EC73   EC   0.77959  0.12255  0.12069
EC74   EC   0.77959  0.37745  0.62069
EC75   EC   0.77959  0.62255  0.87931
EC76   EC   0.77959  0.87745  0.37931
EC77   EC   0.87069  0.12745  0.97041
EC78   EC   0.87069  0.37255  0.47041
EC79   EC   0.87069  0.62745  0.02959
EC80   EC   0.87069  0.87255  0.52959
EC81   EC   0.87255  0.02959  0.12931
EC82   EC   0.87255  0.47041  0.62931
EC83   EC   0.87255  0.52959  0.87069
EC84   EC   0.87255  0.97041  0.37069
EC85   EC   0.87745  0.12069  0.27959
EC86   EC   0.87745  0.37931  0.77959
EC87   EC   0.87745  0.62069  0.72041
EC88   EC   0.87745  0.87931  0.22041
EC89   EC   0.87931  0.22041  0.87745
EC90   EC   0.87931  0.27959  0.37745
EC91   EC   0.87931  0.72041  0.12255
EC92   EC   0.87931  0.77959  0.62255
EC93   EC   0.97041  0.12931  0.37255
EC94   EC   0.97041  0.37069  0.87255
EC95   EC   0.97041  0.62931  0.62745
EC96   EC   0.97041  0.87069  0.12745
E1    E   0.01493  0.13979  0.38945
E2    E   0.01493  0.36021  0.88945
E3    E   0.01493  0.63979  0.61055
E4    E   0.01493  0.86021  0.11055
E5    E   0.06162  0.09438  0.86115
E6    E   0.06162  0.40562  0.36115
E7    E   0.06162  0.59438  0.13885
E8    E   0.06162  0.90562  0.63885
E9    E   0.06466  0.15994  0.85810
E10   E   0.06466  0.34006  0.35810
E11   E   0.06466  0.65994  0.14190
E12   E   0.06466  0.84006  0.64190
E13   E   0.09006  0.18534  0.39190
E14   E   0.09006  0.31466  0.89190
E15   E   0.09006  0.68534  0.60810
E16   E   0.09006  0.81466  0.10810
E17   E   0.09438  0.13885  0.43838
E18   E   0.09438  0.36115  0.93838
E19   E   0.09438  0.63885  0.56162
E20   E   0.09438  0.86115  0.06162
E21   E   0.10810  0.09006  0.81466
E22   E   0.10810  0.40994  0.31466
E23   E   0.10810  0.59006  0.18534
E24   E   0.10810  0.90994  0.68534
E25   E   0.11021  0.23507  0.86055
E26   E   0.11021  0.26493  0.36055
E27   E   0.11021  0.73507  0.13945
E28   E   0.11021  0.76493  0.63945
E29   E   0.11055  0.01493  0.86021
E30   E   0.11055  0.48507  0.36021
E31   E   0.11055  0.51493  0.13979
E32   E   0.11055  0.98507  0.63979
E33   E   0.11115  0.15562  0.81162
E34   E   0.11115  0.34438  0.31162
E35   E   0.11115  0.65562  0.18838
E36   E   0.11115  0.84438  0.68838
E37   E   0.13885  0.06162  0.59438
E38   E   0.13885  0.43838  0.09438
E39   E   0.13885  0.56162  0.40562
E40   E   0.13885  0.93838  0.90562
E41   E   0.13945  0.11021  0.73507
E42   E   0.13945  0.38979  0.23507
E43   E   0.13945  0.61021  0.26493
E44   E   0.13945  0.88979  0.76493
E45   E   0.13979  0.11055  0.51493
E46   E   0.13979  0.38945  0.01493
E47   E   0.13979  0.61055  0.48507
E48   E   0.13979  0.88945  0.98507
E49   E   0.14190  0.06466  0.65994
E50   E   0.14190  0.43534  0.15994
E51   E   0.14190  0.56466  0.34006
E52   E   0.14190  0.93534  0.84006
E53   E   0.15562  0.18838  0.38885
E54   E   0.15562  0.31162  0.88885
E55   E   0.15562  0.68838  0.61115
E56   E   0.15562  0.81162  0.11115
E57   E   0.15994  0.14190  0.43534
E58   E   0.15994  0.35810  0.93534
E59   E   0.15994  0.64190  0.56466
E60   E   0.15994  0.85810  0.06466
E61   E   0.18534  0.10810  0.59006
E62   E   0.18534  0.39190  0.09006
E63   E   0.18534  0.60810  0.40994
E64   E   0.18534  0.89190  0.90994
E65   E   0.18838  0.11115  0.65562
E66   E   0.18838  0.38885  0.15562
E67   E   0.18838  0.61115  0.34438
E68   E   0.18838  0.88885  0.84438
E69   E   0.23507  0.13945  0.38979
E70   E   0.23507  0.36055  0.88979
E71   E   0.23507  0.63945  0.61021
E72   E   0.23507  0.86055  0.11021
E73   E   0.26493  0.13945  0.61021
E74   E   0.26493  0.36055  0.11021
E75   E   0.26493  0.63945  0.38979
E76   E   0.26493  0.86055  0.88979
E77   E   0.31162  0.11115  0.34438
E78   E   0.31162  0.38885  0.84438
E79   E   0.31162  0.61115  0.65562
E80   E   0.31162  0.88885  0.15562
E81   E   0.31466  0.10810  0.40994
E82   E   0.31466  0.39190  0.90994
E83   E   0.31466  0.60810  0.59006
E84   E   0.31466  0.89190  0.09006
E85   E   0.34006  0.14190  0.56466
E86   E   0.34006  0.35810  0.06466
E87   E   0.34006  0.64190  0.43534
E88   E   0.34006  0.85810  0.93534
E89   E   0.34438  0.18838  0.61115
E90   E   0.34438  0.31162  0.11115
E91   E   0.34438  0.68838  0.38885
E92   E   0.34438  0.81162  0.88885
E93   E   0.35810  0.06466  0.34006
E94   E   0.35810  0.43534  0.84006
E95   E   0.35810  0.56466  0.65994
E96   E   0.35810  0.93534  0.15994
E97   E   0.36021  0.11055  0.48507
E98   E   0.36021  0.38945  0.98507
E99   E   0.36021  0.61055  0.51493
E100  E   0.36021  0.88945  0.01493
E101  E   0.36055  0.11021  0.26493
E102  E   0.36055  0.38979  0.76493
E103  E   0.36055  0.61021  0.73507
E104  E   0.36055  0.88979  0.23507
E105  E   0.36115  0.06162  0.40562
E106  E   0.36115  0.43838  0.90562
E107  E   0.36115  0.56162  0.59438
E108  E   0.36115  0.93838  0.09438
E109  E   0.38885  0.15562  0.18838
E110  E   0.38885  0.34438  0.68838
E111  E   0.38885  0.65562  0.81162
E112  E   0.38885  0.84438  0.31162
E113  E   0.38945  0.01493  0.13979
E114  E   0.38945  0.48507  0.63979
E115  E   0.38945  0.51493  0.86021
E116  E   0.38945  0.98507  0.36021
E117  E   0.38979  0.23507  0.13945
E118  E   0.38979  0.26493  0.63945
E119  E   0.38979  0.73507  0.86055
E120  E   0.38979  0.76493  0.36055
E121  E   0.39190  0.09006  0.18534
E122  E   0.39190  0.40994  0.68534
E123  E   0.39190  0.59006  0.81466
E124  E   0.39190  0.90994  0.31466
E125  E   0.40562  0.13885  0.56162
E126  E   0.40562  0.36115  0.06162
E127  E   0.40562  0.63885  0.43838
E128  E   0.40562  0.86115  0.93838
E129  E   0.40994  0.18534  0.60810
E130  E   0.40994  0.31466  0.10810
E131  E   0.40994  0.68534  0.39190
E132  E   0.40994  0.81466  0.89190
E133  E   0.43534  0.15994  0.14190
E134  E   0.43534  0.34006  0.64190
E135  E   0.43534  0.65994  0.85810
E136  E   0.43534  0.84006  0.35810
E137  E   0.43838  0.09438  0.13885
E138  E   0.43838  0.40562  0.63885
E139  E   0.43838  0.59438  0.86115
E140  E   0.43838  0.90562  0.36115
E141  E   0.48507  0.13979  0.61055
E142  E   0.48507  0.36021  0.11055
E143  E   0.48507  0.63979  0.38945
E144  E   0.48507  0.86021  0.88945
E145  E   0.51493  0.13979  0.11055
E146  E   0.51493  0.36021  0.61055
E147  E   0.51493  0.63979  0.88945
E148  E   0.51493  0.86021  0.38945
E149  E   0.56162  0.09438  0.63885
E150  E   0.56162  0.40562  0.13885
E151  E   0.56162  0.59438  0.36115
E152  E   0.56162  0.90562  0.86115
E153  E   0.56466  0.15994  0.64190
E154  E   0.56466  0.34006  0.14190
E155  E   0.56466  0.65994  0.35810
E156  E   0.56466  0.84006  0.85810
E157  E   0.59006  0.18534  0.10810
E158  E   0.59006  0.31466  0.60810
E159  E   0.59006  0.68534  0.89190
E160  E   0.59006  0.81466  0.39190
E161  E   0.59438  0.13885  0.06162
E162  E   0.59438  0.36115  0.56162
E163  E   0.59438  0.63885  0.93838
E164  E   0.59438  0.86115  0.43838
E165  E   0.60810  0.09006  0.68534
E166  E   0.60810  0.40994  0.18534
E167  E   0.60810  0.59006  0.31466
E168  E   0.60810  0.90994  0.81466
E169  E   0.61021  0.23507  0.63945
E170  E   0.61021  0.26493  0.13945
E171  E   0.61021  0.73507  0.36055
E172  E   0.61021  0.76493  0.86055
E173  E   0.61055  0.01493  0.63979
E174  E   0.61055  0.48507  0.13979
E175  E   0.61055  0.51493  0.36021
E176  E   0.61055  0.98507  0.86021
E177  E   0.61115  0.15562  0.68838
E178  E   0.61115  0.34438  0.18838
E179  E   0.61115  0.65562  0.31162
E180  E   0.61115  0.84438  0.81162
E181  E   0.63885  0.06162  0.90562
E182  E   0.63885  0.43838  0.40562
E183  E   0.63885  0.56162  0.09438
E184  E   0.63885  0.93838  0.59438
E185  E   0.63945  0.11021  0.76493
E186  E   0.63945  0.38979  0.26493
E187  E   0.63945  0.61021  0.23507
E188  E   0.63945  0.88979  0.73507
E189  E   0.63979  0.11055  0.98507
E190  E   0.63979  0.38945  0.48507
E191  E   0.63979  0.61055  0.01493
E192  E   0.63979  0.88945  0.51493
E193  E   0.64190  0.06466  0.84006
E194  E   0.64190  0.43534  0.34006
E195  E   0.64190  0.56466  0.15994
E196  E   0.64190  0.93534  0.65994
E197  E   0.65562  0.18838  0.11115
E198  E   0.65562  0.31162  0.61115
E199  E   0.65562  0.68838  0.88885
E200  E   0.65562  0.81162  0.38885
E201  E   0.65994  0.14190  0.06466
E202  E   0.65994  0.35810  0.56466
E203  E   0.65994  0.64190  0.93534
E204  E   0.65994  0.85810  0.43534
E205  E   0.68534  0.10810  0.90994
E206  E   0.68534  0.39190  0.40994
E207  E   0.68534  0.60810  0.09006
E208  E   0.68534  0.89190  0.59006
E209  E   0.68838  0.11115  0.84438
E210  E   0.68838  0.38885  0.34438
E211  E   0.68838  0.61115  0.15562
E212  E   0.68838  0.88885  0.65562
E213  E   0.73507  0.13945  0.11021
E214  E   0.73507  0.36055  0.61021
E215  E   0.73507  0.63945  0.88979
E216  E   0.73507  0.86055  0.38979
E217  E   0.76493  0.13945  0.88979
E218  E   0.76493  0.36055  0.38979
E219  E   0.76493  0.63945  0.11021
E220  E   0.76493  0.86055  0.61021
E221  E   0.81162  0.11115  0.15562
E222  E   0.81162  0.38885  0.65562
E223  E   0.81162  0.61115  0.84438
E224  E   0.81162  0.88885  0.34438
E225  E   0.81466  0.10810  0.09006
E226  E   0.81466  0.39190  0.59006
E227  E   0.81466  0.60810  0.90994
E228  E   0.81466  0.89190  0.40994
E229  E   0.84006  0.14190  0.93534
E230  E   0.84006  0.35810  0.43534
E231  E   0.84006  0.64190  0.06466
E232  E   0.84006  0.85810  0.56466
E233  E   0.84438  0.18838  0.88885
E234  E   0.84438  0.31162  0.38885
E235  E   0.84438  0.68838  0.11115
E236  E   0.84438  0.81162  0.61115
E237  E   0.85810  0.06466  0.15994
E238  E   0.85810  0.43534  0.65994
E239  E   0.85810  0.56466  0.84006
E240  E   0.85810  0.93534  0.34006
E241  E   0.86021  0.11055  0.01493
E242  E   0.86021  0.38945  0.51493
E243  E   0.86021  0.61055  0.98507
E244  E   0.86021  0.88945  0.48507
E245  E   0.86055  0.11021  0.23507
E246  E   0.86055  0.38979  0.73507
E247  E   0.86055  0.61021  0.76493
E248  E   0.86055  0.88979  0.26493
E249  E   0.86115  0.06162  0.09438
E250  E   0.86115  0.43838  0.59438
E251  E   0.86115  0.56162  0.90562
E252  E   0.86115  0.93838  0.40562
E253  E   0.88885  0.15562  0.31162
E254  E   0.88885  0.34438  0.81162
E255  E   0.88885  0.65562  0.68838
E256  E   0.88885  0.84438  0.18838
E257  E   0.88945  0.01493  0.36021
E258  E   0.88945  0.48507  0.86021
E259  E   0.88945  0.51493  0.63979
E260  E   0.88945  0.98507  0.13979
E261  E   0.88979  0.23507  0.36055
E262  E   0.88979  0.26493  0.86055
E263  E   0.88979  0.73507  0.63945
E264  E   0.88979  0.76493  0.13945
E265  E   0.89190  0.09006  0.31466
E266  E   0.89190  0.40994  0.81466
E267  E   0.89190  0.59006  0.68534
E268  E   0.89190  0.90994  0.18534
E269  E   0.90562  0.13885  0.93838
E270  E   0.90562  0.36115  0.43838
E271  E   0.90562  0.63885  0.06162
E272  E   0.90562  0.86115  0.56162
E273  E   0.90994  0.18534  0.89190
E274  E   0.90994  0.31466  0.39190
E275  E   0.90994  0.68534  0.10810
E276  E   0.90994  0.81466  0.60810
E277  E   0.93534  0.15994  0.35810
E278  E   0.93534  0.34006  0.85810
E279  E   0.93534  0.65994  0.64190
E280  E   0.93534  0.84006  0.14190
E281  E   0.93838  0.09438  0.36115
E282  E   0.93838  0.40562  0.86115
E283  E   0.93838  0.59438  0.63885
E284  E   0.93838  0.90562  0.13885
E285  E   0.98507  0.13979  0.88945
E286  E   0.98507  0.36021  0.38945
E287  E   0.98507  0.63979  0.11055
E288  E   0.98507  0.86021  0.61055
loop_
