data_ana-a_Ia-3d  hall_number: 530, V_con: 4, EC_con: 4
_audit_creation_date              2025-03-06
_audit_creation_method            'MOFbuilder_1.0'
_symmetry_space_group_name_H-M    'P1'
_symmetry_Int_Tables_number       1
_symmetry_cell_setting            triclinic
loop_
_symmetry_equiv_pos_as_xyz
  x,y,z
_cell_length_a                    95.53359999999999
_cell_length_b                    95.53359999999999
_cell_length_c                    95.53359999999999
_cell_angle_alpha                 90.0
_cell_angle_beta                  90.0
_cell_angle_gamma                 90.0
loop_
_atom_site_label
_atom_site_type_symbol
_atom_site_fract_x
_atom_site_fract_y
_atom_site_fract_z
V1    V   0.02321  0.12371  0.84721
V2    V   0.02321  0.37629  0.34721
V3    V   0.02321  0.62371  0.15279
V4    V   0.02321  0.87629  0.65279
V5    V   0.09721  0.12629  0.77321
V6    V   0.09721  0.37371  0.27321
V7    V   0.09721  0.62629  0.22679
V8    V   0.09721  0.87371  0.72679
V9    V   0.12371  0.15279  0.47679
V10   V   0.12371  0.34721  0.97679
V11   V   0.12371  0.65279  0.52321
V12   V   0.12371  0.84721  0.02321
V13   V   0.12629  0.22679  0.40279
V14   V   0.12629  0.27321  0.90279
V15   V   0.12629  0.72679  0.59721
V16   V   0.12629  0.77321  0.09721
V17   V   0.15279  0.02321  0.62371
V18   V   0.15279  0.47679  0.12371
V19   V   0.15279  0.52321  0.37629
V20   V   0.15279  0.97679  0.87629
V21   V   0.22679  0.09721  0.62629
V22   V   0.22679  0.40279  0.12629
V23   V   0.22679  0.59721  0.37371
V24   V   0.22679  0.90279  0.87371
V25   V   0.27321  0.09721  0.37371
V26   V   0.27321  0.40279  0.87371
V27   V   0.27321  0.59721  0.62629
V28   V   0.27321  0.90279  0.12629
V29   V   0.34721  0.02321  0.37629
V30   V   0.34721  0.47679  0.87629
V31   V   0.34721  0.52321  0.62371
V32   V   0.34721  0.97679  0.12371
V33   V   0.37371  0.22679  0.59721
V34   V   0.37371  0.27321  0.09721
V35   V   0.37371  0.72679  0.40279
V36   V   0.37371  0.77321  0.90279
V37   V   0.37629  0.15279  0.52321
V38   V   0.37629  0.34721  0.02321
V39   V   0.37629  0.65279  0.47679
V40   V   0.37629  0.84721  0.97679
V41   V   0.40279  0.12629  0.22679
V42   V   0.40279  0.37371  0.72679
V43   V   0.40279  0.62629  0.77321
V44   V   0.40279  0.87371  0.27321
V45   V   0.47679  0.12371  0.15279
V46   V   0.47679  0.37629  0.65279
V47   V   0.47679  0.62371  0.84721
V48   V   0.47679  0.87629  0.34721
V49   V   0.52321  0.12371  0.65279
V50   V   0.52321  0.37629  0.15279
V51   V   0.52321  0.62371  0.34721
V52   V   0.52321  0.87629  0.84721
V53   V   0.59721  0.12629  0.72679
V54   V   0.59721  0.37371  0.22679
V55   V   0.59721  0.62629  0.27321
V56   V   0.59721  0.87371  0.77321
V57   V   0.62371  0.15279  0.02321
V58   V   0.62371  0.34721  0.52321
V59   V   0.62371  0.65279  0.97679
V60   V   0.62371  0.84721  0.47679
V61   V   0.62629  0.22679  0.09721
V62   V   0.62629  0.27321  0.59721
V63   V   0.62629  0.72679  0.90279
V64   V   0.62629  0.77321  0.40279
V65   V   0.65279  0.02321  0.87629
V66   V   0.65279  0.47679  0.37629
V67   V   0.65279  0.52321  0.12371
V68   V   0.65279  0.97679  0.62371
V69   V   0.72679  0.09721  0.87371
V70   V   0.72679  0.40279  0.37371
V71   V   0.72679  0.59721  0.12629
V72   V   0.72679  0.90279  0.62629
V73   V   0.77321  0.09721  0.12629
V74   V   0.77321  0.40279  0.62629
V75   V   0.77321  0.59721  0.87371
V76   V   0.77321  0.90279  0.37371
V77   V   0.84721  0.02321  0.12371
V78   V   0.84721  0.47679  0.62371
V79   V   0.84721  0.52321  0.87629
V80   V   0.84721  0.97679  0.37629
V81   V   0.87371  0.22679  0.90279
V82   V   0.87371  0.27321  0.40279
V83   V   0.87371  0.72679  0.09721
V84   V   0.87371  0.77321  0.59721
V85   V   0.87629  0.15279  0.97679
V86   V   0.87629  0.34721  0.47679
V87   V   0.87629  0.65279  0.02321
V88   V   0.87629  0.84721  0.52321
V89   V   0.90279  0.12629  0.27321
V90   V   0.90279  0.37371  0.77321
V91   V   0.90279  0.62629  0.72679
V92   V   0.90279  0.87371  0.22679
V93   V   0.97679  0.12371  0.34721
V94   V   0.97679  0.37629  0.84721
V95   V   0.97679  0.62371  0.65279
V96   V   0.97679  0.87629  0.15279
EC1    EC   0.07268  0.13837  0.38654
EC2    EC   0.07268  0.36163  0.88654
EC3    EC   0.07268  0.63837  0.61346
EC4    EC   0.07268  0.86163  0.11346
EC5    EC   0.11163  0.17732  0.86346
EC6    EC   0.11163  0.32268  0.36346
EC7    EC   0.11163  0.67732  0.13654
EC8    EC   0.11163  0.82268  0.63654
EC9    EC   0.11346  0.07268  0.86163
EC10   EC   0.11346  0.42732  0.36163
EC11   EC   0.11346  0.57268  0.13837
EC12   EC   0.11346  0.92732  0.63837
EC13   EC   0.13654  0.11163  0.67732
EC14   EC   0.13654  0.38837  0.17732
EC15   EC   0.13654  0.61163  0.32268
EC16   EC   0.13654  0.88837  0.82268
EC17   EC   0.13837  0.11346  0.57268
EC18   EC   0.13837  0.38654  0.07268
EC19   EC   0.13837  0.61346  0.42732
EC20   EC   0.13837  0.88654  0.92732
EC21   EC   0.17732  0.13654  0.38837
EC22   EC   0.17732  0.36346  0.88837
EC23   EC   0.17732  0.63654  0.61163
EC24   EC   0.17732  0.86346  0.11163
EC25   EC   0.32268  0.13654  0.61163
EC26   EC   0.32268  0.36346  0.11163
EC27   EC   0.32268  0.63654  0.38837
EC28   EC   0.32268  0.86346  0.88837
EC29   EC   0.36163  0.11346  0.42732
EC30   EC   0.36163  0.38654  0.92732
EC31   EC   0.36163  0.61346  0.57268
EC32   EC   0.36163  0.88654  0.07268
EC33   EC   0.36346  0.11163  0.32268
EC34   EC   0.36346  0.38837  0.82268
EC35   EC   0.36346  0.61163  0.67732
EC36   EC   0.36346  0.88837  0.17732
EC37   EC   0.38654  0.07268  0.13837
EC38   EC   0.38654  0.42732  0.63837
EC39   EC   0.38654  0.57268  0.86163
EC40   EC   0.38654  0.92732  0.36163
EC41   EC   0.38837  0.17732  0.13654
EC42   EC   0.38837  0.32268  0.63654
EC43   EC   0.38837  0.67732  0.86346
EC44   EC   0.38837  0.82268  0.36346
EC45   EC   0.42732  0.13837  0.61346
EC46   EC   0.42732  0.36163  0.11346
EC47   EC   0.42732  0.63837  0.38654
EC48   EC   0.42732  0.86163  0.88654
EC49   EC   0.57268  0.13837  0.11346
EC50   EC   0.57268  0.36163  0.61346
EC51   EC   0.57268  0.63837  0.88654
EC52   EC   0.57268  0.86163  0.38654
EC53   EC   0.61163  0.17732  0.63654
EC54   EC   0.61163  0.32268  0.13654
EC55   EC   0.61163  0.67732  0.36346
EC56   EC   0.61163  0.82268  0.86346
EC57   EC   0.61346  0.07268  0.63837
EC58   EC   0.61346  0.42732  0.13837
EC59   EC   0.61346  0.57268  0.36163
EC60   EC   0.61346  0.92732  0.86163
EC61   EC   0.63654  0.11163  0.82268
EC62   EC   0.63654  0.38837  0.32268
EC63   EC   0.63654  0.61163  0.17732
EC64   EC   0.63654  0.88837  0.67732
EC65   EC   0.63837  0.11346  0.92732
EC66   EC   0.63837  0.38654  0.42732
EC67   EC   0.63837  0.61346  0.07268
EC68   EC   0.63837  0.88654  0.57268
EC69   EC   0.67732  0.13654  0.11163
EC70   EC   0.67732  0.36346  0.61163
EC71   EC   0.67732  0.63654  0.88837
EC72   EC   0.67732  0.86346  0.38837
EC73   EC   0.82268  0.13654  0.88837
EC74   EC   0.82268  0.36346  0.38837
EC75   EC   0.82268  0.63654  0.11163
EC76   EC   0.82268  0.86346  0.61163
EC77   EC   0.86163  0.11346  0.07268
EC78   EC   0.86163  0.38654  0.57268
EC79   EC   0.86163  0.61346  0.92732
EC80   EC   0.86163  0.88654  0.42732
EC81   EC   0.86346  0.11163  0.17732
EC82   EC   0.86346  0.38837  0.67732
EC83   EC   0.86346  0.61163  0.82268
EC84   EC   0.86346  0.88837  0.32268
EC85   EC   0.88654  0.07268  0.36163
EC86   EC   0.88654  0.42732  0.86163
EC87   EC   0.88654  0.57268  0.63837
EC88   EC   0.88654  0.92732  0.13837
EC89   EC   0.88837  0.17732  0.36346
EC90   EC   0.88837  0.32268  0.86346
EC91   EC   0.88837  0.67732  0.63654
EC92   EC   0.88837  0.82268  0.13654
EC93   EC   0.92732  0.13837  0.88654
EC94   EC   0.92732  0.36163  0.38654
EC95   EC   0.92732  0.63837  0.11346
EC96   EC   0.92732  0.86163  0.61346
E1    E   0.02473  0.13104  0.36687
E2    E   0.02473  0.36896  0.86687
E3    E   0.02473  0.63104  0.63313
E4    E   0.02473  0.86896  0.13313
E5    E   0.06021  0.12500  0.81021
E6    E   0.06021  0.37500  0.31021
E7    E   0.06021  0.62500  0.18979
E8    E   0.06021  0.87500  0.68979
E9    E   0.06021  0.12500  0.81021
E10   E   0.06021  0.37500  0.31021
E11   E   0.06021  0.62500  0.18979
E12   E   0.06021  0.87500  0.68979
E13   E   0.06742  0.15052  0.85533
E14   E   0.06742  0.34948  0.35533
E15   E   0.06742  0.65052  0.14467
E16   E   0.06742  0.84948  0.64467
E17   E   0.06834  0.09819  0.85442
E18   E   0.06834  0.40181  0.35442
E19   E   0.06834  0.59819  0.14558
E20   E   0.06834  0.90181  0.64558
E21   E   0.09819  0.14558  0.43166
E22   E   0.09819  0.35442  0.93166
E23   E   0.09819  0.64558  0.56834
E24   E   0.09819  0.85442  0.06834
E25   E   0.09948  0.18258  0.39467
E26   E   0.09948  0.31742  0.89467
E27   E   0.09948  0.68258  0.60533
E28   E   0.09948  0.81742  0.10533
E29   E   0.10442  0.15181  0.81834
E30   E   0.10442  0.34819  0.31834
E31   E   0.10442  0.65181  0.18166
E32   E   0.10442  0.84819  0.68166
E33   E   0.10533  0.09948  0.81742
E34   E   0.10533  0.40052  0.31742
E35   E   0.10533  0.59948  0.18258
E36   E   0.10533  0.90052  0.68258
E37   E   0.11255  0.12500  0.86255
E38   E   0.11255  0.37500  0.36255
E39   E   0.11255  0.62500  0.13745
E40   E   0.11255  0.87500  0.63745
E41   E   0.11255  0.12500  0.86255
E42   E   0.11255  0.37500  0.36255
E43   E   0.11255  0.62500  0.13745
E44   E   0.11255  0.87500  0.63745
E45   E   0.11687  0.11896  0.72527
E46   E   0.11687  0.38104  0.22527
E47   E   0.11687  0.61896  0.27473
E48   E   0.11687  0.88104  0.77473
E49   E   0.11896  0.22527  0.88313
E50   E   0.11896  0.27473  0.38313
E51   E   0.11896  0.72527  0.11687
E52   E   0.11896  0.77473  0.61687
E53   E   0.12500  0.13745  0.38745
E54   E   0.12500  0.13745  0.38745
E55   E   0.12500  0.18979  0.43979
E56   E   0.12500  0.31021  0.93979
E57   E   0.12500  0.36255  0.88745
E58   E   0.12500  0.36255  0.88745
E59   E   0.12500  0.63745  0.61255
E60   E   0.12500  0.63745  0.61255
E61   E   0.12500  0.68979  0.56021
E62   E   0.12500  0.81021  0.06021
E63   E   0.12500  0.81021  0.06021
E64   E   0.12500  0.86255  0.11255
E65   E   0.12500  0.86255  0.11255
E66   E   0.13104  0.13313  0.52473
E67   E   0.13104  0.36687  0.02473
E68   E   0.13104  0.63313  0.47527
E69   E   0.13104  0.86687  0.97527
E70   E   0.13313  0.02473  0.86896
E71   E   0.13313  0.47527  0.36896
E72   E   0.13313  0.52473  0.13104
E73   E   0.13313  0.97527  0.63104
E74   E   0.13745  0.11255  0.62500
E75   E   0.13745  0.38745  0.12500
E76   E   0.13745  0.61255  0.37500
E77   E   0.13745  0.88745  0.87500
E78   E   0.13745  0.11255  0.62500
E79   E   0.13745  0.38745  0.12500
E80   E   0.13745  0.61255  0.37500
E81   E   0.13745  0.88745  0.87500
E82   E   0.14467  0.06742  0.65052
E83   E   0.14467  0.43258  0.15052
E84   E   0.14467  0.56742  0.34948
E85   E   0.14467  0.93258  0.84948
E86   E   0.14558  0.06834  0.59819
E87   E   0.14558  0.43166  0.09819
E88   E   0.14558  0.56834  0.40181
E89   E   0.14558  0.93166  0.90181
E90   E   0.15052  0.14467  0.43258
E91   E   0.15052  0.35533  0.93258
E92   E   0.15052  0.64467  0.56742
E93   E   0.15052  0.85533  0.06742
E94   E   0.15181  0.18166  0.39558
E95   E   0.15181  0.31834  0.89558
E96   E   0.15181  0.68166  0.60442
E97   E   0.15181  0.81834  0.10442
E98   E   0.18166  0.10442  0.65181
E99   E   0.18166  0.39558  0.15181
E100  E   0.18166  0.60442  0.34819
E101  E   0.18166  0.89558  0.84819
E102  E   0.18258  0.10533  0.59948
E103  E   0.18258  0.39467  0.09948
E104  E   0.18258  0.60533  0.40052
E105  E   0.18258  0.89467  0.90052
E106  E   0.18979  0.06021  0.62500
E107  E   0.18979  0.06021  0.62500
E108  E   0.18979  0.43979  0.12500
E109  E   0.18979  0.56021  0.37500
E110  E   0.18979  0.93979  0.87500
E111  E   0.22527  0.11687  0.38104
E112  E   0.22527  0.38313  0.88104
E113  E   0.22527  0.61687  0.61896
E114  E   0.22527  0.88313  0.11896
E115  E   0.27473  0.11687  0.61896
E116  E   0.27473  0.38313  0.11896
E117  E   0.27473  0.61687  0.38104
E118  E   0.27473  0.88313  0.88104
E119  E   0.31021  0.06021  0.37500
E120  E   0.31021  0.06021  0.37500
E121  E   0.31021  0.43979  0.87500
E122  E   0.31021  0.56021  0.62500
E123  E   0.31021  0.93979  0.12500
E124  E   0.31742  0.10533  0.40052
E125  E   0.31742  0.39467  0.90052
E126  E   0.31742  0.60533  0.59948
E127  E   0.31742  0.89467  0.09948
E128  E   0.31834  0.10442  0.34819
E129  E   0.31834  0.39558  0.84819
E130  E   0.31834  0.60442  0.65181
E131  E   0.31834  0.89558  0.15181
E132  E   0.34819  0.18166  0.60442
E133  E   0.34819  0.31834  0.10442
E134  E   0.34819  0.68166  0.39558
E135  E   0.34819  0.81834  0.89558
E136  E   0.34948  0.14467  0.56742
E137  E   0.34948  0.35533  0.06742
E138  E   0.34948  0.64467  0.43258
E139  E   0.34948  0.85533  0.93258
E140  E   0.35442  0.06834  0.40181
E141  E   0.35442  0.43166  0.90181
E142  E   0.35442  0.56834  0.59819
E143  E   0.35442  0.93166  0.09819
E144  E   0.35533  0.06742  0.34948
E145  E   0.35533  0.43258  0.84948
E146  E   0.35533  0.56742  0.65052
E147  E   0.35533  0.93258  0.15052
E148  E   0.36255  0.11255  0.37500
E149  E   0.36255  0.38745  0.87500
E150  E   0.36255  0.61255  0.62500
E151  E   0.36255  0.88745  0.12500
E152  E   0.36255  0.11255  0.37500
E153  E   0.36255  0.38745  0.87500
E154  E   0.36255  0.61255  0.62500
E155  E   0.36255  0.88745  0.12500
E156  E   0.36687  0.02473  0.13104
E157  E   0.36687  0.47527  0.63104
E158  E   0.36687  0.52473  0.86896
E159  E   0.36687  0.97527  0.36896
E160  E   0.36896  0.13313  0.47527
E161  E   0.36896  0.36687  0.97527
E162  E   0.36896  0.63313  0.52473
E163  E   0.36896  0.86687  0.02473
E164  E   0.37500  0.13745  0.61255
E165  E   0.37500  0.13745  0.61255
E166  E   0.37500  0.18979  0.56021
E167  E   0.37500  0.31021  0.06021
E168  E   0.37500  0.31021  0.06021
E169  E   0.37500  0.36255  0.11255
E170  E   0.37500  0.36255  0.11255
E171  E   0.37500  0.63745  0.38745
E172  E   0.37500  0.63745  0.38745
E173  E   0.37500  0.68979  0.43979
E174  E   0.37500  0.81021  0.93979
E175  E   0.37500  0.86255  0.88745
E176  E   0.37500  0.86255  0.88745
E177  E   0.38104  0.22527  0.11687
E178  E   0.38104  0.27473  0.61687
E179  E   0.38104  0.72527  0.88313
E180  E   0.38104  0.77473  0.38313
E181  E   0.38313  0.11896  0.27473
E182  E   0.38313  0.38104  0.77473
E183  E   0.38313  0.61896  0.72527
E184  E   0.38313  0.88104  0.22527
E185  E   0.38745  0.12500  0.13745
E186  E   0.38745  0.37500  0.63745
E187  E   0.38745  0.62500  0.86255
E188  E   0.38745  0.87500  0.36255
E189  E   0.38745  0.12500  0.13745
E190  E   0.38745  0.37500  0.63745
E191  E   0.38745  0.62500  0.86255
E192  E   0.38745  0.87500  0.36255
E193  E   0.39467  0.09948  0.18258
E194  E   0.39467  0.40052  0.68258
E195  E   0.39467  0.59948  0.81742
E196  E   0.39467  0.90052  0.31742
E197  E   0.39558  0.15181  0.18166
E198  E   0.39558  0.34819  0.68166
E199  E   0.39558  0.65181  0.81834
E200  E   0.39558  0.84819  0.31834
E201  E   0.40052  0.18258  0.60533
E202  E   0.40052  0.31742  0.10533
E203  E   0.40052  0.68258  0.39467
E204  E   0.40052  0.81742  0.89467
E205  E   0.40181  0.14558  0.56834
E206  E   0.40181  0.35442  0.06834
E207  E   0.40181  0.64558  0.43166
E208  E   0.40181  0.85442  0.93166
E209  E   0.43166  0.09819  0.14558
E210  E   0.43166  0.40181  0.64558
E211  E   0.43166  0.59819  0.85442
E212  E   0.43166  0.90181  0.35442
E213  E   0.43258  0.15052  0.14467
E214  E   0.43258  0.34948  0.64467
E215  E   0.43258  0.65052  0.85533
E216  E   0.43258  0.84948  0.35533
E217  E   0.43979  0.12500  0.18979
E218  E   0.43979  0.37500  0.68979
E219  E   0.43979  0.62500  0.81021
E220  E   0.43979  0.87500  0.31021
E221  E   0.47527  0.13104  0.63313
E222  E   0.47527  0.36896  0.13313
E223  E   0.47527  0.63104  0.36687
E224  E   0.47527  0.86896  0.86687
E225  E   0.52473  0.13104  0.13313
E226  E   0.52473  0.36896  0.63313
E227  E   0.52473  0.63104  0.86687
E228  E   0.52473  0.86896  0.36687
E229  E   0.56021  0.12500  0.68979
E230  E   0.56021  0.37500  0.18979
E231  E   0.56021  0.62500  0.31021
E232  E   0.56021  0.87500  0.81021
E233  E   0.56742  0.15052  0.64467
E234  E   0.56742  0.34948  0.14467
E235  E   0.56742  0.65052  0.35533
E236  E   0.56742  0.84948  0.85533
E237  E   0.56834  0.09819  0.64558
E238  E   0.56834  0.40181  0.14558
E239  E   0.56834  0.59819  0.35442
E240  E   0.56834  0.90181  0.85442
E241  E   0.59819  0.14558  0.06834
E242  E   0.59819  0.35442  0.56834
E243  E   0.59819  0.64558  0.93166
E244  E   0.59819  0.85442  0.43166
E245  E   0.59948  0.18258  0.10533
E246  E   0.59948  0.31742  0.60533
E247  E   0.59948  0.68258  0.89467
E248  E   0.59948  0.81742  0.39467
E249  E   0.60442  0.15181  0.68166
E250  E   0.60442  0.34819  0.18166
E251  E   0.60442  0.65181  0.31834
E252  E   0.60442  0.84819  0.81834
E253  E   0.60533  0.09948  0.68258
E254  E   0.60533  0.40052  0.18258
E255  E   0.60533  0.59948  0.31742
E256  E   0.60533  0.90052  0.81742
E257  E   0.61255  0.12500  0.63745
E258  E   0.61255  0.37500  0.13745
E259  E   0.61255  0.62500  0.36255
E260  E   0.61255  0.87500  0.86255
E261  E   0.61255  0.12500  0.63745
E262  E   0.61255  0.37500  0.13745
E263  E   0.61255  0.62500  0.36255
E264  E   0.61255  0.87500  0.86255
E265  E   0.61687  0.11896  0.77473
E266  E   0.61687  0.38104  0.27473
E267  E   0.61687  0.61896  0.22527
E268  E   0.61687  0.88104  0.72527
E269  E   0.61896  0.22527  0.61687
E270  E   0.61896  0.27473  0.11687
E271  E   0.61896  0.72527  0.38313
E272  E   0.61896  0.77473  0.88313
E273  E   0.62500  0.13745  0.11255
E274  E   0.62500  0.13745  0.11255
E275  E   0.62500  0.18979  0.06021
E276  E   0.62500  0.18979  0.06021
E277  E   0.62500  0.31021  0.56021
E278  E   0.62500  0.36255  0.61255
E279  E   0.62500  0.36255  0.61255
E280  E   0.62500  0.63745  0.88745
E281  E   0.62500  0.63745  0.88745
E282  E   0.62500  0.68979  0.93979
E283  E   0.62500  0.81021  0.43979
E284  E   0.62500  0.86255  0.38745
E285  E   0.62500  0.86255  0.38745
E286  E   0.63104  0.13313  0.97527
E287  E   0.63104  0.36687  0.47527
E288  E   0.63104  0.63313  0.02473
E289  E   0.63104  0.86687  0.52473
E290  E   0.63313  0.02473  0.63104
E291  E   0.63313  0.47527  0.13104
E292  E   0.63313  0.52473  0.36896
E293  E   0.63313  0.97527  0.86896
E294  E   0.63745  0.11255  0.87500
E295  E   0.63745  0.38745  0.37500
E296  E   0.63745  0.61255  0.12500
E297  E   0.63745  0.88745  0.62500
E298  E   0.63745  0.11255  0.87500
E299  E   0.63745  0.38745  0.37500
E300  E   0.63745  0.61255  0.12500
E301  E   0.63745  0.88745  0.62500
E302  E   0.64467  0.06742  0.84948
E303  E   0.64467  0.43258  0.34948
E304  E   0.64467  0.56742  0.15052
E305  E   0.64467  0.93258  0.65052
E306  E   0.64558  0.06834  0.90181
E307  E   0.64558  0.43166  0.40181
E308  E   0.64558  0.56834  0.09819
E309  E   0.64558  0.93166  0.59819
E310  E   0.65052  0.14467  0.06742
E311  E   0.65052  0.35533  0.56742
E312  E   0.65052  0.64467  0.93258
E313  E   0.65052  0.85533  0.43258
E314  E   0.65181  0.18166  0.10442
E315  E   0.65181  0.31834  0.60442
E316  E   0.65181  0.68166  0.89558
E317  E   0.65181  0.81834  0.39558
E318  E   0.68166  0.10442  0.84819
E319  E   0.68166  0.39558  0.34819
E320  E   0.68166  0.60442  0.15181
E321  E   0.68166  0.89558  0.65181
E322  E   0.68258  0.10533  0.90052
E323  E   0.68258  0.39467  0.40052
E324  E   0.68258  0.60533  0.09948
E325  E   0.68258  0.89467  0.59948
E326  E   0.68979  0.06021  0.87500
E327  E   0.68979  0.06021  0.87500
E328  E   0.68979  0.43979  0.37500
E329  E   0.68979  0.56021  0.12500
E330  E   0.68979  0.93979  0.62500
E331  E   0.72527  0.11687  0.11896
E332  E   0.72527  0.38313  0.61896
E333  E   0.72527  0.61687  0.88104
E334  E   0.72527  0.88313  0.38104
E335  E   0.77473  0.11687  0.88104
E336  E   0.77473  0.38313  0.38104
E337  E   0.77473  0.61687  0.11896
E338  E   0.77473  0.88313  0.61896
E339  E   0.81021  0.06021  0.12500
E340  E   0.81021  0.06021  0.12500
E341  E   0.81021  0.43979  0.62500
E342  E   0.81021  0.56021  0.87500
E343  E   0.81021  0.93979  0.37500
E344  E   0.81742  0.10533  0.09948
E345  E   0.81742  0.39467  0.59948
E346  E   0.81742  0.60533  0.90052
E347  E   0.81742  0.89467  0.40052
E348  E   0.81834  0.10442  0.15181
E349  E   0.81834  0.39558  0.65181
E350  E   0.81834  0.60442  0.84819
E351  E   0.81834  0.89558  0.34819
E352  E   0.84819  0.18166  0.89558
E353  E   0.84819  0.31834  0.39558
E354  E   0.84819  0.68166  0.10442
E355  E   0.84819  0.81834  0.60442
E356  E   0.84948  0.14467  0.93258
E357  E   0.84948  0.35533  0.43258
E358  E   0.84948  0.64467  0.06742
E359  E   0.84948  0.85533  0.56742
E360  E   0.85442  0.06834  0.09819
E361  E   0.85442  0.43166  0.59819
E362  E   0.85442  0.56834  0.90181
E363  E   0.85442  0.93166  0.40181
E364  E   0.85533  0.06742  0.15052
E365  E   0.85533  0.43258  0.65052
E366  E   0.85533  0.56742  0.84948
E367  E   0.85533  0.93258  0.34948
E368  E   0.86255  0.11255  0.12500
E369  E   0.86255  0.38745  0.62500
E370  E   0.86255  0.61255  0.87500
E371  E   0.86255  0.88745  0.37500
E372  E   0.86255  0.11255  0.12500
E373  E   0.86255  0.38745  0.62500
E374  E   0.86255  0.61255  0.87500
E375  E   0.86255  0.88745  0.37500
E376  E   0.86687  0.02473  0.36896
E377  E   0.86687  0.47527  0.86896
E378  E   0.86687  0.52473  0.63104
E379  E   0.86687  0.97527  0.13104
E380  E   0.86896  0.13313  0.02473
E381  E   0.86896  0.36687  0.52473
E382  E   0.86896  0.63313  0.97527
E383  E   0.86896  0.86687  0.47527
E384  E   0.87500  0.13745  0.88745
E385  E   0.87500  0.13745  0.88745
E386  E   0.87500  0.18979  0.93979
E387  E   0.87500  0.31021  0.43979
E388  E   0.87500  0.36255  0.38745
E389  E   0.87500  0.36255  0.38745
E390  E   0.87500  0.63745  0.11255
E391  E   0.87500  0.63745  0.11255
E392  E   0.87500  0.68979  0.06021
E393  E   0.87500  0.68979  0.06021
E394  E   0.87500  0.81021  0.56021
E395  E   0.87500  0.86255  0.61255
E396  E   0.87500  0.86255  0.61255
E397  E   0.88104  0.22527  0.38313
E398  E   0.88104  0.27473  0.88313
E399  E   0.88104  0.72527  0.61687
E400  E   0.88104  0.77473  0.11687
E401  E   0.88313  0.11896  0.22527
E402  E   0.88313  0.38104  0.72527
E403  E   0.88313  0.61896  0.77473
E404  E   0.88313  0.88104  0.27473
E405  E   0.88745  0.12500  0.36255
E406  E   0.88745  0.37500  0.86255
E407  E   0.88745  0.62500  0.63745
E408  E   0.88745  0.87500  0.13745
E409  E   0.88745  0.12500  0.36255
E410  E   0.88745  0.37500  0.86255
E411  E   0.88745  0.62500  0.63745
E412  E   0.88745  0.87500  0.13745
E413  E   0.89467  0.09948  0.31742
E414  E   0.89467  0.40052  0.81742
E415  E   0.89467  0.59948  0.68258
E416  E   0.89467  0.90052  0.18258
E417  E   0.89558  0.15181  0.31834
E418  E   0.89558  0.34819  0.81834
E419  E   0.89558  0.65181  0.68166
E420  E   0.89558  0.84819  0.18166
E421  E   0.90052  0.18258  0.89467
E422  E   0.90052  0.31742  0.39467
E423  E   0.90052  0.68258  0.10533
E424  E   0.90052  0.81742  0.60533
E425  E   0.90181  0.14558  0.93166
E426  E   0.90181  0.35442  0.43166
E427  E   0.90181  0.64558  0.06834
E428  E   0.90181  0.85442  0.56834
E429  E   0.93166  0.09819  0.35442
E430  E   0.93166  0.40181  0.85442
E431  E   0.93166  0.59819  0.64558
E432  E   0.93166  0.90181  0.14558
E433  E   0.93258  0.15052  0.35533
E434  E   0.93258  0.34948  0.85533
E435  E   0.93258  0.65052  0.64467
E436  E   0.93258  0.84948  0.14467
E437  E   0.93979  0.12500  0.31021
E438  E   0.93979  0.37500  0.81021
E439  E   0.93979  0.62500  0.68979
E440  E   0.93979  0.87500  0.18979
E441  E   0.97527  0.13104  0.86687
E442  E   0.97527  0.36896  0.36687
E443  E   0.97527  0.63104  0.13313
E444  E   0.97527  0.86896  0.63313
loop_
