data_anl_Ia-3d  hall_number: 530, V_con: 6, EC_con: 4
_audit_creation_date              2025-03-06
_audit_creation_method            'MOFbuilder_1.0'
_symmetry_space_group_name_H-M    'P1'
_symmetry_Int_Tables_number       1
_symmetry_cell_setting            triclinic
loop_
_symmetry_equiv_pos_as_xyz
  x,y,z
_cell_length_a                    47.8665
_cell_length_b                    47.8665
_cell_length_c                    47.8665
_cell_angle_alpha                 90.0
_cell_angle_beta                  90.0
_cell_angle_gamma                 90.0
loop_
_atom_site_label
_atom_site_type_symbol
_atom_site_fract_x
_atom_site_fract_y
_atom_site_fract_z
V1    V   0.11950  0.12500  0.86950
V2    V   0.11950  0.37500  0.36950
V3    V   0.11950  0.62500  0.13050
V4    V   0.11950  0.62500  0.13050
V5    V   0.11950  0.87500  0.63050
V6    V   0.12500  0.13050  0.38050
V7    V   0.12500  0.13050  0.38050
V8    V   0.12500  0.36950  0.88050
V9    V   0.12500  0.63050  0.61950
V10   V   0.12500  0.86950  0.11950
V11   V   0.13050  0.11950  0.62500
V12   V   0.13050  0.38050  0.12500
V13   V   0.13050  0.61950  0.37500
V14   V   0.13050  0.88050  0.87500
V15   V   0.13050  0.11950  0.62500
V16   V   0.13050  0.38050  0.12500
V17   V   0.13050  0.61950  0.37500
V18   V   0.13050  0.88050  0.87500
V19   V   0.36950  0.11950  0.37500
V20   V   0.36950  0.38050  0.87500
V21   V   0.36950  0.61950  0.62500
V22   V   0.36950  0.88050  0.12500
V23   V   0.37500  0.13050  0.61950
V24   V   0.37500  0.13050  0.61950
V25   V   0.37500  0.36950  0.11950
V26   V   0.37500  0.63050  0.38050
V27   V   0.37500  0.86950  0.88050
V28   V   0.38050  0.12500  0.13050
V29   V   0.38050  0.12500  0.13050
V30   V   0.38050  0.37500  0.63050
V31   V   0.38050  0.62500  0.86950
V32   V   0.38050  0.87500  0.36950
V33   V   0.61950  0.12500  0.63050
V34   V   0.61950  0.37500  0.13050
V35   V   0.61950  0.37500  0.13050
V36   V   0.61950  0.62500  0.36950
V37   V   0.61950  0.87500  0.86950
V38   V   0.62500  0.13050  0.11950
V39   V   0.62500  0.13050  0.11950
V40   V   0.62500  0.36950  0.61950
V41   V   0.62500  0.63050  0.88050
V42   V   0.62500  0.86950  0.38050
V43   V   0.63050  0.11950  0.87500
V44   V   0.63050  0.38050  0.37500
V45   V   0.63050  0.61950  0.12500
V46   V   0.63050  0.88050  0.62500
V47   V   0.86950  0.11950  0.12500
V48   V   0.86950  0.38050  0.62500
V49   V   0.86950  0.61950  0.87500
V50   V   0.86950  0.88050  0.37500
V51   V   0.87500  0.13050  0.88050
V52   V   0.87500  0.13050  0.88050
V53   V   0.87500  0.36950  0.38050
V54   V   0.87500  0.63050  0.11950
V55   V   0.87500  0.86950  0.61950
V56   V   0.88050  0.12500  0.36950
V57   V   0.88050  0.37500  0.86950
V58   V   0.88050  0.62500  0.63050
V59   V   0.88050  0.87500  0.13050
V60   V   0.88050  0.87500  0.13050
EC1    EC   0.00000  0.25000  0.37500
EC2    EC   0.00000  0.25000  0.87500
EC3    EC   0.00000  0.75000  0.12500
EC4    EC   0.00000  0.75000  0.62500
EC5    EC   0.12500  0.00000  0.75000
EC6    EC   0.12500  0.50000  0.25000
EC7    EC   0.25000  0.12500  0.50000
EC8    EC   0.25000  0.37500  0.00000
EC9    EC   0.25000  0.62500  0.50000
EC10   EC   0.25000  0.87500  0.00000
EC11   EC   0.37500  0.00000  0.25000
EC12   EC   0.37500  0.50000  0.75000
EC13   EC   0.50000  0.25000  0.12500
EC14   EC   0.50000  0.25000  0.62500
EC15   EC   0.50000  0.75000  0.37500
EC16   EC   0.50000  0.75000  0.87500
EC17   EC   0.62500  0.00000  0.75000
EC18   EC   0.62500  0.50000  0.25000
EC19   EC   0.75000  0.12500  0.00000
EC20   EC   0.75000  0.37500  0.50000
EC21   EC   0.75000  0.62500  0.00000
EC22   EC   0.75000  0.87500  0.50000
EC23   EC   0.87500  0.00000  0.25000
EC24   EC   0.87500  0.50000  0.75000
E1    E   0.00275  0.12775  0.37500
E2    E   0.00275  0.37225  0.87500
E3    E   0.00275  0.62775  0.62500
E4    E   0.00275  0.87225  0.12500
E5    E   0.05975  0.18750  0.87225
E6    E   0.05975  0.31250  0.37225
E7    E   0.05975  0.68750  0.12775
E8    E   0.05975  0.81250  0.62775
E9    E   0.06250  0.19025  0.37775
E10   E   0.06250  0.30975  0.87775
E11   E   0.06250  0.69025  0.62225
E12   E   0.06250  0.80975  0.12225
E13   E   0.12225  0.24725  0.87500
E14   E   0.12225  0.25275  0.37500
E15   E   0.12225  0.74725  0.12500
E16   E   0.12225  0.75275  0.62500
E17   E   0.12225  0.06250  0.80975
E18   E   0.12225  0.43750  0.30975
E19   E   0.12225  0.56250  0.19025
E20   E   0.12225  0.93750  0.69025
E21   E   0.12500  0.00275  0.87225
E22   E   0.12500  0.12225  0.74725
E23   E   0.12500  0.37775  0.24725
E24   E   0.12500  0.49725  0.37225
E25   E   0.12500  0.50275  0.12775
E26   E   0.12500  0.62225  0.25275
E27   E   0.12500  0.87775  0.75275
E28   E   0.12500  0.99725  0.62775
E29   E   0.12775  0.12500  0.50275
E30   E   0.12775  0.37500  0.00275
E31   E   0.12775  0.62500  0.49725
E32   E   0.12775  0.87500  0.99725
E33   E   0.12775  0.05975  0.68750
E34   E   0.12775  0.44025  0.18750
E35   E   0.12775  0.55975  0.31250
E36   E   0.12775  0.94025  0.81250
E37   E   0.18750  0.12775  0.44025
E38   E   0.18750  0.37225  0.94025
E39   E   0.18750  0.62775  0.55975
E40   E   0.18750  0.87225  0.05975
E41   E   0.19025  0.12225  0.56250
E42   E   0.19025  0.37775  0.06250
E43   E   0.19025  0.62225  0.43750
E44   E   0.19025  0.87775  0.93750
E45   E   0.24725  0.12500  0.37775
E46   E   0.24725  0.37500  0.87775
E47   E   0.24725  0.62500  0.62225
E48   E   0.24725  0.87500  0.12225
E49   E   0.25275  0.12500  0.62225
E50   E   0.25275  0.37500  0.12225
E51   E   0.25275  0.62500  0.37775
E52   E   0.25275  0.87500  0.87775
E53   E   0.30975  0.12225  0.43750
E54   E   0.30975  0.37775  0.93750
E55   E   0.30975  0.62225  0.56250
E56   E   0.30975  0.87775  0.06250
E57   E   0.31250  0.12775  0.55975
E58   E   0.31250  0.37225  0.05975
E59   E   0.31250  0.62775  0.44025
E60   E   0.31250  0.87225  0.94025
E61   E   0.37225  0.12500  0.49725
E62   E   0.37225  0.37500  0.99725
E63   E   0.37225  0.62500  0.50275
E64   E   0.37225  0.87500  0.00275
E65   E   0.37225  0.05975  0.31250
E66   E   0.37225  0.44025  0.81250
E67   E   0.37225  0.55975  0.68750
E68   E   0.37225  0.94025  0.18750
E69   E   0.37500  0.00275  0.12775
E70   E   0.37500  0.12225  0.25275
E71   E   0.37500  0.37775  0.75275
E72   E   0.37500  0.49725  0.62775
E73   E   0.37500  0.50275  0.87225
E74   E   0.37500  0.62225  0.74725
E75   E   0.37500  0.87775  0.24725
E76   E   0.37500  0.99725  0.37225
E77   E   0.37775  0.06250  0.19025
E78   E   0.37775  0.43750  0.69025
E79   E   0.37775  0.56250  0.80975
E80   E   0.37775  0.93750  0.30975
E81   E   0.37775  0.24725  0.12500
E82   E   0.37775  0.25275  0.62500
E83   E   0.37775  0.74725  0.87500
E84   E   0.37775  0.75275  0.37500
E85   E   0.43750  0.19025  0.62225
E86   E   0.43750  0.30975  0.12225
E87   E   0.43750  0.69025  0.37775
E88   E   0.43750  0.80975  0.87775
E89   E   0.44025  0.18750  0.12775
E90   E   0.44025  0.31250  0.62775
E91   E   0.44025  0.68750  0.87225
E92   E   0.44025  0.81250  0.37225
E93   E   0.49725  0.12775  0.62500
E94   E   0.49725  0.37225  0.12500
E95   E   0.49725  0.62775  0.37500
E96   E   0.49725  0.87225  0.87500
E97   E   0.50275  0.12775  0.12500
E98   E   0.50275  0.37225  0.62500
E99   E   0.50275  0.62775  0.87500
E100  E   0.50275  0.87225  0.37500
E101  E   0.55975  0.18750  0.62775
E102  E   0.55975  0.31250  0.12775
E103  E   0.55975  0.68750  0.37225
E104  E   0.55975  0.81250  0.87225
E105  E   0.56250  0.19025  0.12225
E106  E   0.56250  0.30975  0.62225
E107  E   0.56250  0.69025  0.87775
E108  E   0.56250  0.80975  0.37775
E109  E   0.62225  0.06250  0.69025
E110  E   0.62225  0.24725  0.62500
E111  E   0.62225  0.25275  0.12500
E112  E   0.62225  0.43750  0.19025
E113  E   0.62225  0.56250  0.30975
E114  E   0.62225  0.74725  0.37500
E115  E   0.62225  0.75275  0.87500
E116  E   0.62225  0.93750  0.80975
E117  E   0.62500  0.00275  0.62775
E118  E   0.62500  0.12225  0.75275
E119  E   0.62500  0.37775  0.25275
E120  E   0.62500  0.49725  0.12775
E121  E   0.62500  0.50275  0.37225
E122  E   0.62500  0.62225  0.24725
E123  E   0.62500  0.87775  0.74725
E124  E   0.62500  0.99725  0.87225
E125  E   0.62775  0.05975  0.81250
E126  E   0.62775  0.12500  0.99725
E127  E   0.62775  0.37500  0.49725
E128  E   0.62775  0.44025  0.31250
E129  E   0.62775  0.55975  0.18750
E130  E   0.62775  0.62500  0.00275
E131  E   0.62775  0.87500  0.50275
E132  E   0.62775  0.94025  0.68750
E133  E   0.68750  0.12775  0.05975
E134  E   0.68750  0.37225  0.55975
E135  E   0.68750  0.62775  0.94025
E136  E   0.68750  0.87225  0.44025
E137  E   0.69025  0.12225  0.93750
E138  E   0.69025  0.37775  0.43750
E139  E   0.69025  0.62225  0.06250
E140  E   0.69025  0.87775  0.56250
E141  E   0.74725  0.12500  0.12225
E142  E   0.74725  0.37500  0.62225
E143  E   0.74725  0.62500  0.87775
E144  E   0.74725  0.87500  0.37775
E145  E   0.75275  0.12500  0.87775
E146  E   0.75275  0.37500  0.37775
E147  E   0.75275  0.62500  0.12225
E148  E   0.75275  0.87500  0.62225
E149  E   0.80975  0.12225  0.06250
E150  E   0.80975  0.37775  0.56250
E151  E   0.80975  0.62225  0.93750
E152  E   0.80975  0.87775  0.43750
E153  E   0.81250  0.12775  0.94025
E154  E   0.81250  0.37225  0.44025
E155  E   0.81250  0.62775  0.05975
E156  E   0.81250  0.87225  0.55975
E157  E   0.87225  0.05975  0.18750
E158  E   0.87225  0.12500  0.00275
E159  E   0.87225  0.37500  0.50275
E160  E   0.87225  0.44025  0.68750
E161  E   0.87225  0.55975  0.81250
E162  E   0.87225  0.62500  0.99725
E163  E   0.87225  0.87500  0.49725
E164  E   0.87225  0.94025  0.31250
E165  E   0.87500  0.00275  0.37225
E166  E   0.87500  0.12225  0.24725
E167  E   0.87500  0.37775  0.74725
E168  E   0.87500  0.49725  0.87225
E169  E   0.87500  0.50275  0.62775
E170  E   0.87500  0.62225  0.75275
E171  E   0.87500  0.87775  0.25275
E172  E   0.87500  0.99725  0.12775
E173  E   0.87775  0.06250  0.30975
E174  E   0.87775  0.24725  0.37500
E175  E   0.87775  0.25275  0.87500
E176  E   0.87775  0.43750  0.80975
E177  E   0.87775  0.56250  0.69025
E178  E   0.87775  0.74725  0.62500
E179  E   0.87775  0.75275  0.12500
E180  E   0.87775  0.93750  0.19025
E181  E   0.93750  0.19025  0.87775
E182  E   0.93750  0.30975  0.37775
E183  E   0.93750  0.69025  0.12225
E184  E   0.93750  0.80975  0.62225
E185  E   0.94025  0.18750  0.37225
E186  E   0.94025  0.31250  0.87225
E187  E   0.94025  0.68750  0.62775
E188  E   0.94025  0.81250  0.12775
E189  E   0.99725  0.12775  0.87500
E190  E   0.99725  0.37225  0.37500
E191  E   0.99725  0.62775  0.12500
E192  E   0.99725  0.87225  0.62500
loop_
