data_apo_Pbcn  hall_number: 284, V_con: 6, EC_con: 3
_audit_creation_date              2025-03-06
_audit_creation_method            'MOFbuilder_1.0'
_symmetry_space_group_name_H-M    'P1'
_symmetry_Int_Tables_number       1
_symmetry_cell_setting            triclinic
loop_
_symmetry_equiv_pos_as_xyz
  x,y,z
_cell_length_a                    23.5416
_cell_length_b                    27.8941
_cell_length_c                    25.223300000000002
_cell_angle_alpha                 90.0
_cell_angle_beta                  90.0
_cell_angle_gamma                 90.0
loop_
_atom_site_label
_atom_site_type_symbol
_atom_site_fract_x
_atom_site_fract_y
_atom_site_fract_z
V1    V   0.00000  0.14304  0.25000
V2    V   0.00000  0.85696  0.75000
V3    V   0.50000  0.35696  0.75000
V4    V   0.50000  0.64304  0.25000
EC1    EC   0.19976  0.14275  0.90012
EC2    EC   0.19976  0.85725  0.40012
EC3    EC   0.30024  0.35725  0.40012
EC4    EC   0.30024  0.64275  0.90012
EC5    EC   0.69976  0.35725  0.09988
EC6    EC   0.69976  0.64275  0.59988
EC7    EC   0.80024  0.14275  0.59988
EC8    EC   0.80024  0.85725  0.09988
E1    E   0.09988  0.00015  0.32506
E2    E   0.09988  0.14289  0.07506
E3    E   0.09988  0.85711  0.57506
E4    E   0.09988  0.99985  0.82506
E5    E   0.15012  0.25015  0.32506
E6    E   0.15012  0.74985  0.82506
E7    E   0.34988  0.24985  0.82506
E8    E   0.34988  0.75015  0.32506
E9    E   0.40012  0.35711  0.57506
E10   E   0.40012  0.49985  0.82506
E11   E   0.40012  0.50015  0.32506
E12   E   0.40012  0.64289  0.07506
E13   E   0.59988  0.35711  0.92494
E14   E   0.59988  0.49985  0.67494
E15   E   0.59988  0.50015  0.17494
E16   E   0.59988  0.64289  0.42494
E17   E   0.65012  0.24985  0.67494
E18   E   0.65012  0.75015  0.17494
E19   E   0.84988  0.25015  0.17494
E20   E   0.84988  0.74985  0.67494
E21   E   0.90012  0.00015  0.17494
E22   E   0.90012  0.14289  0.42494
E23   E   0.90012  0.85711  0.92494
E24   E   0.90012  0.99985  0.67494
loop_
