data_atv_Cmma  hall_number: 317, V_con: 4, EC_con: 4
_audit_creation_date              2025-03-06
_audit_creation_method            'MOFbuilder_1.0'
_symmetry_space_group_name_H-M    'P1'
_symmetry_Int_Tables_number       1
_symmetry_cell_setting            triclinic
loop_
_symmetry_equiv_pos_as_xyz
  x,y,z
_cell_length_a                    48.1719
_cell_length_b                    26.707299999999996
_cell_length_c                    30.6717
_cell_angle_alpha                 90.0
_cell_angle_beta                  90.0
_cell_angle_gamma                 90.0
loop_
_atom_site_label
_atom_site_type_symbol
_atom_site_fract_x
_atom_site_fract_y
_atom_site_fract_z
V1    V   0.15221  0.06279  0.34642
V2    V   0.15221  0.43721  0.65358
V3    V   0.15221  0.56279  0.65358
V4    V   0.15221  0.93721  0.34642
V5    V   0.34779  0.06279  0.34642
V6    V   0.34779  0.43721  0.65358
V7    V   0.34779  0.56279  0.65358
V8    V   0.34779  0.93721  0.34642
V9    V   0.65221  0.06279  0.65358
V10   V   0.65221  0.43721  0.34642
V11   V   0.65221  0.56279  0.34642
V12   V   0.65221  0.93721  0.65358
V13   V   0.84779  0.06279  0.65358
V14   V   0.84779  0.43721  0.34642
V15   V   0.84779  0.56279  0.34642
V16   V   0.84779  0.93721  0.65358
EC1    EC   0.00000  0.06279  0.15357
EC2    EC   0.00000  0.06279  0.84643
EC3    EC   0.00000  0.43721  0.15357
EC4    EC   0.00000  0.43721  0.84643
EC5    EC   0.00000  0.56279  0.15357
EC6    EC   0.00000  0.56279  0.84643
EC7    EC   0.00000  0.93721  0.15357
EC8    EC   0.00000  0.93721  0.84643
EC9    EC   0.50000  0.06279  0.15357
EC10   EC   0.50000  0.06279  0.84643
EC11   EC   0.50000  0.43721  0.15357
EC12   EC   0.50000  0.43721  0.84643
EC13   EC   0.50000  0.56279  0.15357
EC14   EC   0.50000  0.56279  0.84643
EC15   EC   0.50000  0.93721  0.15357
EC16   EC   0.50000  0.93721  0.84643
E1    E   0.00000  0.00000  0.00000
E2    E   0.00000  0.25000  0.15357
E3    E   0.00000  0.25000  0.84643
E4    E   0.00000  0.50000  0.00000
E5    E   0.00000  0.75000  0.15357
E6    E   0.00000  0.75000  0.84643
E7    E   0.07611  0.00000  0.25000
E8    E   0.07611  0.50000  0.75000
E9    E   0.15221  0.00000  0.50000
E10   E   0.15221  0.25000  0.34642
E11   E   0.15221  0.25000  0.65358
E12   E   0.15221  0.50000  0.50000
E13   E   0.15221  0.75000  0.34642
E14   E   0.15221  0.75000  0.65358
E15   E   0.25000  0.00000  0.34642
E16   E   0.25000  0.50000  0.65358
E17   E   0.34779  0.00000  0.50000
E18   E   0.34779  0.25000  0.34642
E19   E   0.34779  0.25000  0.65358
E20   E   0.34779  0.50000  0.50000
E21   E   0.34779  0.75000  0.34642
E22   E   0.34779  0.75000  0.65358
E23   E   0.42389  0.00000  0.25000
E24   E   0.42389  0.50000  0.75000
E25   E   0.50000  0.00000  0.00000
E26   E   0.50000  0.25000  0.15357
E27   E   0.50000  0.25000  0.84643
E28   E   0.50000  0.50000  0.00000
E29   E   0.50000  0.75000  0.15357
E30   E   0.50000  0.75000  0.84643
E31   E   0.57611  0.00000  0.75000
E32   E   0.57611  0.50000  0.25000
E33   E   0.65221  0.00000  0.50000
E34   E   0.65221  0.25000  0.34642
E35   E   0.65221  0.25000  0.65358
E36   E   0.65221  0.50000  0.50000
E37   E   0.65221  0.75000  0.34642
E38   E   0.65221  0.75000  0.65358
E39   E   0.75000  0.00000  0.65358
E40   E   0.75000  0.50000  0.34642
E41   E   0.84779  0.00000  0.50000
E42   E   0.84779  0.25000  0.34642
E43   E   0.84779  0.25000  0.65358
E44   E   0.84779  0.50000  0.50000
E45   E   0.84779  0.75000  0.34642
E46   E   0.84779  0.75000  0.65358
E47   E   0.92389  0.00000  0.75000
E48   E   0.92389  0.50000  0.25000
loop_
