data_bal_P-31m  hall_number: 454, V_con: 4, EC_con: 4
_audit_creation_date              2025-03-06
_audit_creation_method            'MOFbuilder_1.0'
_symmetry_space_group_name_H-M    'P1'
_symmetry_Int_Tables_number       1
_symmetry_cell_setting            triclinic
loop_
_symmetry_equiv_pos_as_xyz
  x,y,z
_cell_length_a                    26.363699999999998
_cell_length_b                    26.363699999999998
_cell_length_c                    24.316
_cell_angle_alpha                 90.0
_cell_angle_beta                  90.0
_cell_angle_gamma                 120.0
loop_
_atom_site_label
_atom_site_type_symbol
_atom_site_fract_x
_atom_site_fract_y
_atom_site_fract_z
V1    V   0.00000  0.00000  0.20562
V2    V   0.00000  0.00000  0.79438
EC1    EC   0.00000  0.33333  0.59813
EC2    EC   0.00000  0.66667  0.40187
EC3    EC   0.33333  0.00000  0.59813
EC4    EC   0.33333  0.33333  0.40187
EC5    EC   0.66667  0.00000  0.40187
EC6    EC   0.66667  0.66667  0.59813
E1    E   0.00000  0.00000  0.00000
E2    E   0.00000  0.16667  0.69625
E3    E   0.00000  0.50000  0.50000
E4    E   0.00000  0.83333  0.30375
E5    E   0.16666  0.33333  0.50000
E6    E   0.16666  0.83333  0.50000
E7    E   0.16667  0.00000  0.69625
E8    E   0.16667  0.16667  0.30375
E9    E   0.16667  0.33333  0.50000
E10   E   0.16667  0.83334  0.50000
E11   E   0.33333  0.16666  0.50000
E12   E   0.33333  0.16667  0.50000
E13   E   0.50000  0.00000  0.50000
E14   E   0.50000  0.50000  0.50000
E15   E   0.66667  0.83333  0.50000
E16   E   0.66667  0.83334  0.50000
E17   E   0.83333  0.00000  0.30375
E18   E   0.83333  0.16666  0.50000
E19   E   0.83333  0.66667  0.50000
E20   E   0.83333  0.83333  0.69625
E21   E   0.83334  0.16667  0.50000
E22   E   0.83334  0.66667  0.50000
loop_
