data_bat_Pm-3m  hall_number: 517, V_con: 4, EC_con: 4
_audit_creation_date              2025-03-06
_audit_creation_method            'MOFbuilder_1.0'
_symmetry_space_group_name_H-M    'P1'
_symmetry_Int_Tables_number       1
_symmetry_cell_setting            triclinic
loop_
_symmetry_equiv_pos_as_xyz
  x,y,z
_cell_length_a                    58.284200000000006
_cell_length_b                    58.284200000000006
_cell_length_c                    58.284200000000006
_cell_angle_alpha                 90.0
_cell_angle_beta                  90.0
_cell_angle_gamma                 90.0
loop_
_atom_site_label
_atom_site_type_symbol
_atom_site_fract_x
_atom_site_fract_y
_atom_site_fract_z
V1    V   0.08579  0.37868  0.50000
V2    V   0.08579  0.50000  0.37868
V3    V   0.08579  0.50000  0.62132
V4    V   0.08579  0.62132  0.50000
V5    V   0.37868  0.08579  0.50000
V6    V   0.37868  0.50000  0.08579
V7    V   0.37868  0.50000  0.91421
V8    V   0.37868  0.91421  0.50000
V9    V   0.50000  0.08579  0.37868
V10   V   0.50000  0.08579  0.62132
V11   V   0.50000  0.37868  0.08579
V12   V   0.50000  0.37868  0.91421
V13   V   0.50000  0.62132  0.08579
V14   V   0.50000  0.62132  0.91421
V15   V   0.50000  0.91421  0.37868
V16   V   0.50000  0.91421  0.62132
V17   V   0.62132  0.08579  0.50000
V18   V   0.62132  0.50000  0.08579
V19   V   0.62132  0.50000  0.91421
V20   V   0.62132  0.91421  0.50000
V21   V   0.91421  0.37868  0.50000
V22   V   0.91421  0.50000  0.37868
V23   V   0.91421  0.50000  0.62132
V24   V   0.91421  0.62132  0.50000
EC1    EC   0.25736  0.37868  0.50000
EC2    EC   0.25736  0.50000  0.37868
EC3    EC   0.25736  0.50000  0.62132
EC4    EC   0.25736  0.62132  0.50000
EC5    EC   0.37868  0.25736  0.50000
EC6    EC   0.37868  0.50000  0.25736
EC7    EC   0.37868  0.50000  0.74264
EC8    EC   0.37868  0.74264  0.50000
EC9    EC   0.50000  0.25736  0.37868
EC10   EC   0.50000  0.25736  0.62132
EC11   EC   0.50000  0.37868  0.25736
EC12   EC   0.50000  0.37868  0.74264
EC13   EC   0.50000  0.62132  0.25736
EC14   EC   0.50000  0.62132  0.74264
EC15   EC   0.50000  0.74264  0.37868
EC16   EC   0.50000  0.74264  0.62132
EC17   EC   0.62132  0.25736  0.50000
EC18   EC   0.62132  0.50000  0.25736
EC19   EC   0.62132  0.50000  0.74264
EC20   EC   0.62132  0.74264  0.50000
EC21   EC   0.74264  0.37868  0.50000
EC22   EC   0.74264  0.50000  0.37868
EC23   EC   0.74264  0.50000  0.62132
EC24   EC   0.74264  0.62132  0.50000
E1    E   0.00000  0.37868  0.50000
E2    E   0.00000  0.50000  0.37868
E3    E   0.00000  0.50000  0.62132
E4    E   0.00000  0.62132  0.50000
E5    E   0.08579  0.43934  0.43934
E6    E   0.08579  0.43934  0.56066
E7    E   0.08579  0.56066  0.43934
E8    E   0.08579  0.56066  0.56066
E9    E   0.17157  0.37868  0.50000
E10   E   0.17157  0.50000  0.37868
E11   E   0.17157  0.50000  0.62132
E12   E   0.17157  0.62132  0.50000
E13   E   0.25736  0.43934  0.43934
E14   E   0.25736  0.43934  0.56066
E15   E   0.25736  0.56066  0.43934
E16   E   0.25736  0.56066  0.56066
E17   E   0.31802  0.31802  0.50000
E18   E   0.31802  0.50000  0.31802
E19   E   0.31802  0.50000  0.68198
E20   E   0.31802  0.68198  0.50000
E21   E   0.37868  0.00000  0.50000
E22   E   0.37868  0.17157  0.50000
E23   E   0.37868  0.50000  0.00000
E24   E   0.37868  0.50000  0.17157
E25   E   0.37868  0.50000  0.82843
E26   E   0.37868  0.82843  0.50000
E27   E   0.43934  0.08579  0.43934
E28   E   0.43934  0.08579  0.56066
E29   E   0.43934  0.25736  0.43934
E30   E   0.43934  0.25736  0.56066
E31   E   0.43934  0.43934  0.08579
E32   E   0.43934  0.43934  0.25736
E33   E   0.43934  0.43934  0.74264
E34   E   0.43934  0.43934  0.91421
E35   E   0.43934  0.56066  0.08579
E36   E   0.43934  0.56066  0.25736
E37   E   0.43934  0.56066  0.74264
E38   E   0.43934  0.56066  0.91421
E39   E   0.43934  0.74264  0.43934
E40   E   0.43934  0.74264  0.56066
E41   E   0.43934  0.91421  0.43934
E42   E   0.43934  0.91421  0.56066
E43   E   0.50000  0.00000  0.37868
E44   E   0.50000  0.00000  0.62132
E45   E   0.50000  0.17157  0.37868
E46   E   0.50000  0.17157  0.62132
E47   E   0.50000  0.31802  0.31802
E48   E   0.50000  0.31802  0.68198
E49   E   0.50000  0.37868  0.00000
E50   E   0.50000  0.37868  0.17157
E51   E   0.50000  0.37868  0.82843
E52   E   0.50000  0.62132  0.00000
E53   E   0.50000  0.62132  0.17157
E54   E   0.50000  0.62132  0.82843
E55   E   0.50000  0.68198  0.31802
E56   E   0.50000  0.68198  0.68198
E57   E   0.50000  0.82843  0.37868
E58   E   0.50000  0.82843  0.62132
E59   E   0.56066  0.08579  0.43934
E60   E   0.56066  0.08579  0.56066
E61   E   0.56066  0.25736  0.43934
E62   E   0.56066  0.25736  0.56066
E63   E   0.56066  0.43934  0.08579
E64   E   0.56066  0.43934  0.25736
E65   E   0.56066  0.43934  0.74264
E66   E   0.56066  0.43934  0.91421
E67   E   0.56066  0.56066  0.08579
E68   E   0.56066  0.56066  0.25736
E69   E   0.56066  0.56066  0.74264
E70   E   0.56066  0.56066  0.91421
E71   E   0.56066  0.74264  0.43934
E72   E   0.56066  0.74264  0.56066
E73   E   0.56066  0.91421  0.43934
E74   E   0.56066  0.91421  0.56066
E75   E   0.62132  0.00000  0.50000
E76   E   0.62132  0.17157  0.50000
E77   E   0.62132  0.50000  0.00000
E78   E   0.62132  0.50000  0.17157
E79   E   0.62132  0.50000  0.82843
E80   E   0.62132  0.82843  0.50000
E81   E   0.68198  0.31802  0.50000
E82   E   0.68198  0.50000  0.31802
E83   E   0.68198  0.50000  0.68198
E84   E   0.68198  0.68198  0.50000
E85   E   0.74264  0.43934  0.43934
E86   E   0.74264  0.43934  0.56066
E87   E   0.74264  0.56066  0.43934
E88   E   0.74264  0.56066  0.56066
E89   E   0.82843  0.37868  0.50000
E90   E   0.82843  0.50000  0.37868
E91   E   0.82843  0.50000  0.62132
E92   E   0.82843  0.62132  0.50000
E93   E   0.91421  0.43934  0.43934
E94   E   0.91421  0.43934  0.56066
E95   E   0.91421  0.56066  0.43934
E96   E   0.91421  0.56066  0.56066
loop_
