data_bay_P6/mmm  hall_number: 485, V_con: 4, EC_con: 4
_audit_creation_date              2025-03-06
_audit_creation_method            'MOFbuilder_1.0'
_symmetry_space_group_name_H-M    'P1'
_symmetry_Int_Tables_number       1
_symmetry_cell_setting            triclinic
loop_
_symmetry_equiv_pos_as_xyz
  x,y,z
_cell_length_a                    32.1379
_cell_length_b                    32.1379
_cell_length_c                    30.3566
_cell_angle_alpha                 90.0
_cell_angle_beta                  90.0
_cell_angle_gamma                 120.0
loop_
_atom_site_label
_atom_site_type_symbol
_atom_site_fract_x
_atom_site_fract_y
_atom_site_fract_z
V1    V   0.33333  0.66666  0.16471
V2    V   0.33333  0.66666  0.83529
V3    V   0.33333  0.66667  0.16471
V4    V   0.33333  0.66667  0.83529
V5    V   0.33334  0.66667  0.16471
V6    V   0.33334  0.66667  0.83529
V7    V   0.66666  0.33333  0.16471
V8    V   0.66666  0.33333  0.83529
V9    V   0.66667  0.33333  0.16471
V10   V   0.66667  0.33333  0.83529
V11   V   0.66667  0.33334  0.16471
V12   V   0.66667  0.33334  0.83529
EC1    EC   0.17964  0.35929  0.33529
EC2    EC   0.17964  0.35929  0.66471
EC3    EC   0.17964  0.82035  0.33529
EC4    EC   0.17964  0.82035  0.66471
EC5    EC   0.17965  0.35929  0.33529
EC6    EC   0.17965  0.35929  0.66471
EC7    EC   0.17965  0.82036  0.33529
EC8    EC   0.17965  0.82036  0.66471
EC9    EC   0.35929  0.17964  0.33529
EC10   EC   0.35929  0.17964  0.66471
EC11   EC   0.35929  0.17965  0.33529
EC12   EC   0.35929  0.17965  0.66471
EC13   EC   0.64071  0.82035  0.33529
EC14   EC   0.64071  0.82035  0.66471
EC15   EC   0.64071  0.82036  0.33529
EC16   EC   0.64071  0.82036  0.66471
EC17   EC   0.82035  0.17964  0.33529
EC18   EC   0.82035  0.17964  0.66471
EC19   EC   0.82035  0.64071  0.33529
EC20   EC   0.82035  0.64071  0.66471
EC21   EC   0.82036  0.17965  0.33529
EC22   EC   0.82036  0.17965  0.66471
EC23   EC   0.82036  0.64071  0.33529
EC24   EC   0.82036  0.64071  0.66471
E1    E   0.00000  0.26947  0.33529
E2    E   0.00000  0.26947  0.66471
E3    E   0.00000  0.73053  0.33529
E4    E   0.00000  0.73053  0.66471
E5    E   0.17964  0.35929  0.50000
E6    E   0.17964  0.82035  0.50000
E7    E   0.17965  0.35929  0.50000
E8    E   0.17965  0.82036  0.50000
E9    E   0.25649  0.51298  0.25000
E10   E   0.25649  0.51298  0.75000
E11   E   0.25649  0.74351  0.25000
E12   E   0.25649  0.74351  0.75000
E13   E   0.26947  0.00000  0.33529
E14   E   0.26947  0.00000  0.66471
E15   E   0.26947  0.26947  0.33529
E16   E   0.26947  0.26947  0.66471
E17   E   0.33333  0.66666  0.00000
E18   E   0.33333  0.66667  0.00000
E19   E   0.33334  0.66667  0.00000
E20   E   0.35929  0.17964  0.50000
E21   E   0.35929  0.17965  0.50000
E22   E   0.48702  0.74351  0.25000
E23   E   0.48702  0.74351  0.75000
E24   E   0.51298  0.25649  0.25000
E25   E   0.51298  0.25649  0.75000
E26   E   0.64071  0.82035  0.50000
E27   E   0.64071  0.82036  0.50000
E28   E   0.66666  0.33333  0.00000
E29   E   0.66667  0.33333  0.00000
E30   E   0.66667  0.33334  0.00000
E31   E   0.73053  0.00000  0.33529
E32   E   0.73053  0.00000  0.66471
E33   E   0.73053  0.73053  0.33529
E34   E   0.73053  0.73053  0.66471
E35   E   0.74351  0.25649  0.25000
E36   E   0.74351  0.25649  0.75000
E37   E   0.74351  0.48702  0.25000
E38   E   0.74351  0.48702  0.75000
E39   E   0.82035  0.17964  0.50000
E40   E   0.82035  0.64071  0.50000
E41   E   0.82036  0.17965  0.50000
E42   E   0.82036  0.64071  0.50000
loop_
