data_bba_P6/mmm  hall_number: 485, V_con: 4, EC_con: 4
_audit_creation_date              2025-03-06
_audit_creation_method            'MOFbuilder_1.0'
_symmetry_space_group_name_H-M    'P1'
_symmetry_Int_Tables_number       1
_symmetry_cell_setting            triclinic
loop_
_symmetry_equiv_pos_as_xyz
  x,y,z
_cell_length_a                    37.5599
_cell_length_b                    37.5599
_cell_length_c                    16.1309
_cell_angle_alpha                 90.0
_cell_angle_beta                  90.0
_cell_angle_gamma                 120.0
loop_
_atom_site_label
_atom_site_type_symbol
_atom_site_fract_x
_atom_site_fract_y
_atom_site_fract_z
V1    V   0.24458  0.48917  0.00000
V2    V   0.24458  0.75541  0.00000
V3    V   0.24459  0.48917  0.00000
V4    V   0.24459  0.75542  0.00000
V5    V   0.48917  0.24458  0.00000
V6    V   0.48917  0.24459  0.00000
V7    V   0.51083  0.75541  0.00000
V8    V   0.51083  0.75542  0.00000
V9    V   0.75541  0.24458  0.00000
V10   V   0.75541  0.51083  0.00000
V11   V   0.75542  0.24459  0.00000
V12   V   0.75542  0.51083  0.00000
EC1    EC   0.15371  0.30743  0.50000
EC2    EC   0.15371  0.84628  0.50000
EC3    EC   0.15372  0.30743  0.50000
EC4    EC   0.15372  0.84629  0.50000
EC5    EC   0.30743  0.15371  0.50000
EC6    EC   0.30743  0.15372  0.50000
EC7    EC   0.69257  0.84628  0.50000
EC8    EC   0.69257  0.84629  0.50000
EC9    EC   0.84628  0.15371  0.50000
EC10   EC   0.84628  0.69257  0.50000
EC11   EC   0.84629  0.15372  0.50000
EC12   EC   0.84629  0.69257  0.50000
E1    E   0.00000  0.23057  0.50000
E2    E   0.00000  0.76943  0.50000
E3    E   0.19915  0.39830  0.25000
E4    E   0.19915  0.39830  0.75000
E5    E   0.19915  0.80085  0.25000
E6    E   0.19915  0.80085  0.75000
E7    E   0.23057  0.00000  0.50000
E8    E   0.23057  0.23057  0.50000
E9    E   0.24459  0.62229  0.00000
E10   E   0.24459  0.62230  0.00000
E11   E   0.37770  0.62229  0.00000
E12   E   0.37770  0.75541  0.00000
E13   E   0.37771  0.62230  0.00000
E14   E   0.37771  0.75541  0.00000
E15   E   0.39830  0.19915  0.25000
E16   E   0.39830  0.19915  0.75000
E17   E   0.60170  0.80085  0.25000
E18   E   0.60170  0.80085  0.75000
E19   E   0.62229  0.24459  0.00000
E20   E   0.62229  0.37770  0.00000
E21   E   0.62230  0.24459  0.00000
E22   E   0.62230  0.37771  0.00000
E23   E   0.75541  0.37770  0.00000
E24   E   0.75541  0.37771  0.00000
E25   E   0.76943  0.00000  0.50000
E26   E   0.76943  0.76943  0.50000
E27   E   0.80085  0.19915  0.25000
E28   E   0.80085  0.19915  0.75000
E29   E   0.80085  0.60170  0.25000
E30   E   0.80085  0.60170  0.75000
loop_
