data_bbb_P6/mmm  hall_number: 485, V_con: 4, EC_con: 4
_audit_creation_date              2025-03-06
_audit_creation_method            'MOFbuilder_1.0'
_symmetry_space_group_name_H-M    'P1'
_symmetry_Int_Tables_number       1
_symmetry_cell_setting            triclinic
loop_
_symmetry_equiv_pos_as_xyz
  x,y,z
_cell_length_a                    39.7843
_cell_length_b                    39.7843
_cell_length_c                    23.887900000000002
_cell_angle_alpha                 90.0
_cell_angle_beta                  90.0
_cell_angle_gamma                 120.0
loop_
_atom_site_label
_atom_site_type_symbol
_atom_site_fract_x
_atom_site_fract_y
_atom_site_fract_z
V1    V   0.24955  0.49910  0.00000
V2    V   0.24955  0.75045  0.00000
V3    V   0.49910  0.24955  0.00000
V4    V   0.50090  0.75045  0.00000
V5    V   0.75045  0.24955  0.00000
V6    V   0.75045  0.50090  0.00000
EC1    EC   0.14512  0.29024  0.29069
EC2    EC   0.14512  0.29024  0.70931
EC3    EC   0.14512  0.85488  0.29069
EC4    EC   0.14512  0.85488  0.70931
EC5    EC   0.29024  0.14512  0.29069
EC6    EC   0.29024  0.14512  0.70931
EC7    EC   0.70976  0.85488  0.29069
EC8    EC   0.70976  0.85488  0.70931
EC9    EC   0.85488  0.14512  0.29069
EC10   EC   0.85488  0.14512  0.70931
EC11   EC   0.85488  0.70976  0.29069
EC12   EC   0.85488  0.70976  0.70931
E1    E   0.00000  0.21768  0.29069
E2    E   0.00000  0.21768  0.70931
E3    E   0.00000  0.78232  0.29069
E4    E   0.00000  0.78232  0.70931
E5    E   0.14512  0.29024  0.50000
E6    E   0.14512  0.85488  0.50000
E7    E   0.19733  0.39467  0.14534
E8    E   0.19733  0.39467  0.85466
E9    E   0.19733  0.80266  0.14534
E10   E   0.19733  0.80266  0.85466
E11   E   0.19734  0.39467  0.14534
E12   E   0.19734  0.39467  0.85466
E13   E   0.19734  0.80267  0.14534
E14   E   0.19734  0.80267  0.85466
E15   E   0.21768  0.00000  0.29069
E16   E   0.21768  0.00000  0.70931
E17   E   0.21768  0.21768  0.29069
E18   E   0.21768  0.21768  0.70931
E19   E   0.24955  0.62477  0.00000
E20   E   0.24955  0.62478  0.00000
E21   E   0.29024  0.14512  0.50000
E22   E   0.37522  0.62477  0.00000
E23   E   0.37522  0.75045  0.00000
E24   E   0.37523  0.62478  0.00000
E25   E   0.37523  0.75045  0.00000
E26   E   0.39467  0.19733  0.14534
E27   E   0.39467  0.19733  0.85466
E28   E   0.39467  0.19734  0.14534
E29   E   0.39467  0.19734  0.85466
E30   E   0.60533  0.80266  0.14534
E31   E   0.60533  0.80266  0.85466
E32   E   0.60533  0.80267  0.14534
E33   E   0.60533  0.80267  0.85466
E34   E   0.62477  0.24955  0.00000
E35   E   0.62477  0.37522  0.00000
E36   E   0.62478  0.24955  0.00000
E37   E   0.62478  0.37523  0.00000
E38   E   0.70976  0.85488  0.50000
E39   E   0.75045  0.37522  0.00000
E40   E   0.75045  0.37523  0.00000
E41   E   0.78232  0.00000  0.29069
E42   E   0.78232  0.00000  0.70931
E43   E   0.78232  0.78232  0.29069
E44   E   0.78232  0.78232  0.70931
E45   E   0.80266  0.19733  0.14534
E46   E   0.80266  0.19733  0.85466
E47   E   0.80266  0.60533  0.14534
E48   E   0.80266  0.60533  0.85466
E49   E   0.80267  0.19734  0.14534
E50   E   0.80267  0.19734  0.85466
E51   E   0.80267  0.60533  0.14534
E52   E   0.80267  0.60533  0.85466
E53   E   0.85488  0.14512  0.50000
E54   E   0.85488  0.70976  0.50000
loop_
