data_bbh_Cmma  hall_number: 317, V_con: 4, EC_con: 4
_audit_creation_date              2025-03-06
_audit_creation_method            'MOFbuilder_1.0'
_symmetry_space_group_name_H-M    'P1'
_symmetry_Int_Tables_number       1
_symmetry_cell_setting            triclinic
loop_
_symmetry_equiv_pos_as_xyz
  x,y,z
_cell_length_a                    31.8942
_cell_length_b                    30.131100000000004
_cell_length_c                    19.7724
_cell_angle_alpha                 90.0
_cell_angle_beta                  90.0
_cell_angle_gamma                 90.0
loop_
_atom_site_label
_atom_site_type_symbol
_atom_site_fract_x
_atom_site_fract_y
_atom_site_fract_z
V1    V   0.25000  0.00000  0.00000
V2    V   0.25000  0.50000  0.00000
V3    V   0.75000  0.00000  0.00000
V4    V   0.75000  0.50000  0.00000
EC1    EC   0.15677  0.25000  0.29670
EC2    EC   0.15677  0.25000  0.70330
EC3    EC   0.15677  0.75000  0.29670
EC4    EC   0.15677  0.75000  0.70330
EC5    EC   0.34323  0.25000  0.29670
EC6    EC   0.34323  0.25000  0.70330
EC7    EC   0.34323  0.75000  0.29670
EC8    EC   0.34323  0.75000  0.70330
EC9    EC   0.65677  0.25000  0.29670
EC10   EC   0.65677  0.25000  0.70330
EC11   EC   0.65677  0.75000  0.29670
EC12   EC   0.65677  0.75000  0.70330
EC13   EC   0.84323  0.25000  0.29670
EC14   EC   0.84323  0.25000  0.70330
EC15   EC   0.84323  0.75000  0.29670
EC16   EC   0.84323  0.75000  0.70330
E1    E   0.00000  0.25000  0.29670
E2    E   0.00000  0.25000  0.70330
E3    E   0.00000  0.75000  0.29670
E4    E   0.00000  0.75000  0.70330
E5    E   0.20338  0.12500  0.14835
E6    E   0.20338  0.37500  0.85165
E7    E   0.20338  0.62500  0.85165
E8    E   0.20338  0.87500  0.14835
E9    E   0.25000  0.25000  0.50000
E10   E   0.25000  0.75000  0.50000
E11   E   0.29662  0.12500  0.14835
E12   E   0.29662  0.37500  0.85165
E13   E   0.29662  0.62500  0.85165
E14   E   0.29662  0.87500  0.14835
E15   E   0.50000  0.25000  0.29670
E16   E   0.50000  0.25000  0.70330
E17   E   0.50000  0.75000  0.29670
E18   E   0.50000  0.75000  0.70330
E19   E   0.70338  0.12500  0.85165
E20   E   0.70338  0.37500  0.14835
E21   E   0.70338  0.62500  0.14835
E22   E   0.70338  0.87500  0.85165
E23   E   0.75000  0.25000  0.50000
E24   E   0.75000  0.75000  0.50000
E25   E   0.79662  0.12500  0.85165
E26   E   0.79662  0.37500  0.14835
E27   E   0.79662  0.62500  0.14835
E28   E   0.79662  0.87500  0.85165
loop_
