data_bbl_I212121  hall_number: 124, V_con: 4, EC_con: 4
_audit_creation_date              2025-03-06
_audit_creation_method            'MOFbuilder_1.0'
_symmetry_space_group_name_H-M    'P1'
_symmetry_Int_Tables_number       1
_symmetry_cell_setting            triclinic
loop_
_symmetry_equiv_pos_as_xyz
  x,y,z
_cell_length_a                    20.4623
_cell_length_b                    15.295300000000001
_cell_length_c                    55.4767
_cell_angle_alpha                 90.0
_cell_angle_beta                  90.0
_cell_angle_gamma                 90.0
loop_
_atom_site_label
_atom_site_type_symbol
_atom_site_fract_x
_atom_site_fract_y
_atom_site_fract_z
V1    V   0.00000  0.25000  0.30807
V2    V   0.00000  0.75000  0.19193
V3    V   0.50000  0.25000  0.69193
V4    V   0.50000  0.75000  0.80807
EC1    EC   0.15744  0.50000  0.58341
EC2    EC   0.15744  0.50000  0.91659
EC3    EC   0.34256  0.50000  0.08341
EC4    EC   0.34256  0.50000  0.41659
EC5    EC   0.65744  0.00000  0.08341
EC6    EC   0.65744  0.00000  0.41659
EC7    EC   0.84256  0.00000  0.58341
EC8    EC   0.84256  0.00000  0.91659
E1    E   0.00000  0.00000  0.25000
E2    E   0.00000  0.25000  0.58341
E3    E   0.00000  0.25000  0.91659
E4    E   0.00000  0.50000  0.25000
E5    E   0.00000  0.75000  0.58341
E6    E   0.00000  0.75000  0.91659
E7    E   0.17128  0.37500  0.36233
E8    E   0.17128  0.62500  0.13767
E9    E   0.25000  0.50000  0.00000
E10   E   0.25000  0.50000  0.50000
E11   E   0.32872  0.37500  0.63767
E12   E   0.32872  0.62500  0.86233
E13   E   0.50000  0.00000  0.75000
E14   E   0.50000  0.25000  0.08341
E15   E   0.50000  0.25000  0.41659
E16   E   0.50000  0.50000  0.75000
E17   E   0.50000  0.75000  0.08341
E18   E   0.50000  0.75000  0.41659
E19   E   0.67128  0.12500  0.63767
E20   E   0.67128  0.87500  0.86233
E21   E   0.75000  0.00000  0.00000
E22   E   0.75000  0.00000  0.50000
E23   E   0.82872  0.12500  0.36233
E24   E   0.82872  0.87500  0.13767
loop_
