data_bbn_I4/mmm  hall_number: 424, V_con: 4, EC_con: 4
_audit_creation_date              2025-03-06
_audit_creation_method            'MOFbuilder_1.0'
_symmetry_space_group_name_H-M    'P1'
_symmetry_Int_Tables_number       1
_symmetry_cell_setting            triclinic
loop_
_symmetry_equiv_pos_as_xyz
  x,y,z
_cell_length_a                    49.116299999999995
_cell_length_b                    49.116299999999995
_cell_length_c                    27.414299999999997
_cell_angle_alpha                 90.0
_cell_angle_beta                  90.0
_cell_angle_gamma                 90.0
loop_
_atom_site_label
_atom_site_type_symbol
_atom_site_fract_x
_atom_site_fract_y
_atom_site_fract_z
V1    V   0.25000  0.25000  0.25000
V2    V   0.25000  0.25000  0.75000
V3    V   0.25000  0.75000  0.25000
V4    V   0.25000  0.75000  0.75000
V5    V   0.75000  0.25000  0.25000
V6    V   0.75000  0.25000  0.75000
V7    V   0.75000  0.75000  0.25000
V8    V   0.75000  0.75000  0.75000
EC1    EC   0.10180  0.24577  0.50000
EC2    EC   0.10180  0.75423  0.50000
EC3    EC   0.24577  0.10180  0.50000
EC4    EC   0.24577  0.89820  0.50000
EC5    EC   0.25423  0.39820  0.00000
EC6    EC   0.25423  0.60180  0.00000
EC7    EC   0.39820  0.25423  0.00000
EC8    EC   0.39820  0.74577  0.00000
EC9    EC   0.60180  0.25423  0.00000
EC10   EC   0.60180  0.74577  0.00000
EC11   EC   0.74577  0.39820  0.00000
EC12   EC   0.74577  0.60180  0.00000
EC13   EC   0.75423  0.10180  0.50000
EC14   EC   0.75423  0.89820  0.50000
EC15   EC   0.89820  0.24577  0.50000
EC16   EC   0.89820  0.75423  0.50000
E1    E   0.00000  0.24577  0.50000
E2    E   0.00000  0.75423  0.50000
E3    E   0.17378  0.17378  0.50000
E4    E   0.17378  0.82622  0.50000
E5    E   0.17590  0.24788  0.37500
E6    E   0.17590  0.24788  0.62500
E7    E   0.17590  0.75212  0.37500
E8    E   0.17590  0.75212  0.62500
E9    E   0.24577  0.00000  0.50000
E10   E   0.24788  0.17590  0.37500
E11   E   0.24788  0.17590  0.62500
E12   E   0.24788  0.82410  0.37500
E13   E   0.24788  0.82410  0.62500
E14   E   0.25212  0.32410  0.12500
E15   E   0.25212  0.32410  0.87500
E16   E   0.25212  0.67590  0.12500
E17   E   0.25212  0.67590  0.87500
E18   E   0.25423  0.50000  0.00000
E19   E   0.32410  0.25212  0.12500
E20   E   0.32410  0.25212  0.87500
E21   E   0.32410  0.74788  0.12500
E22   E   0.32410  0.74788  0.87500
E23   E   0.32622  0.32622  0.00000
E24   E   0.32622  0.67378  0.00000
E25   E   0.50000  0.25423  0.00000
E26   E   0.50000  0.74577  0.00000
E27   E   0.67378  0.32622  0.00000
E28   E   0.67378  0.67378  0.00000
E29   E   0.67590  0.25212  0.12500
E30   E   0.67590  0.25212  0.87500
E31   E   0.67590  0.74788  0.12500
E32   E   0.67590  0.74788  0.87500
E33   E   0.74577  0.50000  0.00000
E34   E   0.74788  0.32410  0.12500
E35   E   0.74788  0.32410  0.87500
E36   E   0.74788  0.67590  0.12500
E37   E   0.74788  0.67590  0.87500
E38   E   0.75212  0.17590  0.37500
E39   E   0.75212  0.17590  0.62500
E40   E   0.75212  0.82410  0.37500
E41   E   0.75212  0.82410  0.62500
E42   E   0.75423  0.00000  0.50000
E43   E   0.82410  0.24788  0.37500
E44   E   0.82410  0.24788  0.62500
E45   E   0.82410  0.75212  0.37500
E46   E   0.82410  0.75212  0.62500
E47   E   0.82622  0.17378  0.50000
E48   E   0.82622  0.82622  0.50000
loop_
