data_bcd_P4/mmm  hall_number: 400, V_con: 4, EC_con: 4
_audit_creation_date              2025-03-06
_audit_creation_method            'MOFbuilder_1.0'
_symmetry_space_group_name_H-M    'P1'
_symmetry_Int_Tables_number       1
_symmetry_cell_setting            triclinic
loop_
_symmetry_equiv_pos_as_xyz
  x,y,z
_cell_length_a                    48.2487
_cell_length_b                    48.2487
_cell_length_c                    24.177599999999998
_cell_angle_alpha                 90.0
_cell_angle_beta                  90.0
_cell_angle_gamma                 90.0
loop_
_atom_site_label
_atom_site_type_symbol
_atom_site_fract_x
_atom_site_fract_y
_atom_site_fract_z
V1    V   0.10363  0.39637  0.00000
V2    V   0.10363  0.60363  0.00000
V3    V   0.39637  0.10363  0.00000
V4    V   0.39637  0.89637  0.00000
V5    V   0.60363  0.10363  0.00000
V6    V   0.60363  0.89637  0.00000
V7    V   0.89637  0.39637  0.00000
V8    V   0.89637  0.60363  0.00000
EC1    EC   0.10363  0.25018  0.29320
EC2    EC   0.10363  0.25018  0.70680
EC3    EC   0.10363  0.74982  0.29320
EC4    EC   0.10363  0.74982  0.70680
EC5    EC   0.25018  0.10363  0.29320
EC6    EC   0.25018  0.10363  0.70680
EC7    EC   0.25018  0.89637  0.29320
EC8    EC   0.25018  0.89637  0.70680
EC9    EC   0.74982  0.10363  0.29320
EC10   EC   0.74982  0.10363  0.70680
EC11   EC   0.74982  0.89637  0.29320
EC12   EC   0.74982  0.89637  0.70680
EC13   EC   0.89637  0.25018  0.29320
EC14   EC   0.89637  0.25018  0.70680
EC15   EC   0.89637  0.74982  0.29320
EC16   EC   0.89637  0.74982  0.70680
E1    E   0.00000  0.25018  0.29320
E2    E   0.00000  0.25018  0.70680
E3    E   0.00000  0.39637  0.00000
E4    E   0.00000  0.60363  0.00000
E5    E   0.00000  0.74982  0.29320
E6    E   0.00000  0.74982  0.70680
E7    E   0.10363  0.25018  0.50000
E8    E   0.10363  0.32328  0.14660
E9    E   0.10363  0.32328  0.85340
E10   E   0.10363  0.50000  0.00000
E11   E   0.10363  0.67672  0.14660
E12   E   0.10363  0.67672  0.85340
E13   E   0.10363  0.74982  0.50000
E14   E   0.17691  0.17691  0.29320
E15   E   0.17691  0.17691  0.70680
E16   E   0.17691  0.82309  0.29320
E17   E   0.17691  0.82309  0.70680
E18   E   0.25018  0.00000  0.29320
E19   E   0.25018  0.00000  0.70680
E20   E   0.25018  0.10363  0.50000
E21   E   0.25018  0.89637  0.50000
E22   E   0.32328  0.10363  0.14660
E23   E   0.32328  0.10363  0.85340
E24   E   0.32328  0.89637  0.14660
E25   E   0.32328  0.89637  0.85340
E26   E   0.39637  0.00000  0.00000
E27   E   0.50000  0.10363  0.00000
E28   E   0.50000  0.89637  0.00000
E29   E   0.60363  0.00000  0.00000
E30   E   0.67672  0.10363  0.14660
E31   E   0.67672  0.10363  0.85340
E32   E   0.67672  0.89637  0.14660
E33   E   0.67672  0.89637  0.85340
E34   E   0.74982  0.00000  0.29320
E35   E   0.74982  0.00000  0.70680
E36   E   0.74982  0.10363  0.50000
E37   E   0.74982  0.89637  0.50000
E38   E   0.82309  0.17691  0.29320
E39   E   0.82309  0.17691  0.70680
E40   E   0.82309  0.82309  0.29320
E41   E   0.82309  0.82309  0.70680
E42   E   0.89637  0.25018  0.50000
E43   E   0.89637  0.32328  0.14660
E44   E   0.89637  0.32328  0.85340
E45   E   0.89637  0.50000  0.00000
E46   E   0.89637  0.67672  0.14660
E47   E   0.89637  0.67672  0.85340
E48   E   0.89637  0.74982  0.50000
loop_
