data_bce_P4/mmm  hall_number: 400, V_con: 4, EC_con: 4
_audit_creation_date              2025-03-06
_audit_creation_method            'MOFbuilder_1.0'
_symmetry_space_group_name_H-M    'P1'
_symmetry_Int_Tables_number       1
_symmetry_cell_setting            triclinic
loop_
_symmetry_equiv_pos_as_xyz
  x,y,z
_cell_length_a                    48.18939999999999
_cell_length_b                    48.18939999999999
_cell_length_c                    24.236399999999996
_cell_angle_alpha                 90.0
_cell_angle_beta                  90.0
_cell_angle_gamma                 90.0
loop_
_atom_site_label
_atom_site_type_symbol
_atom_site_fract_x
_atom_site_fract_y
_atom_site_fract_z
V1    V   0.10376  0.39624  0.29370
V2    V   0.10376  0.39624  0.70630
V3    V   0.10376  0.60376  0.29370
V4    V   0.10376  0.60376  0.70630
V5    V   0.39624  0.10376  0.29370
V6    V   0.39624  0.10376  0.70630
V7    V   0.39624  0.89624  0.29370
V8    V   0.39624  0.89624  0.70630
V9    V   0.60376  0.10376  0.29370
V10   V   0.60376  0.10376  0.70630
V11   V   0.60376  0.89624  0.29370
V12   V   0.60376  0.89624  0.70630
V13   V   0.89624  0.39624  0.29370
V14   V   0.89624  0.39624  0.70630
V15   V   0.89624  0.60376  0.29370
V16   V   0.89624  0.60376  0.70630
EC1    EC   0.10376  0.25049  0.00000
EC2    EC   0.10376  0.74951  0.00000
EC3    EC   0.25049  0.10376  0.00000
EC4    EC   0.25049  0.89624  0.00000
EC5    EC   0.74951  0.10376  0.00000
EC6    EC   0.74951  0.89624  0.00000
EC7    EC   0.89624  0.25049  0.00000
EC8    EC   0.89624  0.74951  0.00000
E1    E   0.00000  0.25049  0.00000
E2    E   0.00000  0.39624  0.29370
E3    E   0.00000  0.39624  0.70630
E4    E   0.00000  0.60376  0.29370
E5    E   0.00000  0.60376  0.70630
E6    E   0.00000  0.74951  0.00000
E7    E   0.10376  0.32337  0.14685
E8    E   0.10376  0.32337  0.85315
E9    E   0.10376  0.39624  0.50000
E10   E   0.10376  0.50000  0.29370
E11   E   0.10376  0.50000  0.70630
E12   E   0.10376  0.60376  0.50000
E13   E   0.10376  0.67663  0.14685
E14   E   0.10376  0.67663  0.85315
E15   E   0.17713  0.17713  0.00000
E16   E   0.17713  0.82287  0.00000
E17   E   0.25049  0.00000  0.00000
E18   E   0.32337  0.10376  0.14685
E19   E   0.32337  0.10376  0.85315
E20   E   0.32337  0.89624  0.14685
E21   E   0.32337  0.89624  0.85315
E22   E   0.39624  0.00000  0.29370
E23   E   0.39624  0.00000  0.70630
E24   E   0.39624  0.10376  0.50000
E25   E   0.39624  0.89624  0.50000
E26   E   0.50000  0.10376  0.29370
E27   E   0.50000  0.10376  0.70630
E28   E   0.50000  0.89624  0.29370
E29   E   0.50000  0.89624  0.70630
E30   E   0.60376  0.00000  0.29370
E31   E   0.60376  0.00000  0.70630
E32   E   0.60376  0.10376  0.50000
E33   E   0.60376  0.89624  0.50000
E34   E   0.67663  0.10376  0.14685
E35   E   0.67663  0.10376  0.85315
E36   E   0.67663  0.89624  0.14685
E37   E   0.67663  0.89624  0.85315
E38   E   0.74951  0.00000  0.00000
E39   E   0.82287  0.17713  0.00000
E40   E   0.82287  0.82287  0.00000
E41   E   0.89624  0.32337  0.14685
E42   E   0.89624  0.32337  0.85315
E43   E   0.89624  0.39624  0.50000
E44   E   0.89624  0.50000  0.29370
E45   E   0.89624  0.50000  0.70630
E46   E   0.89624  0.60376  0.50000
E47   E   0.89624  0.67663  0.14685
E48   E   0.89624  0.67663  0.85315
loop_
