data_bcf_P4/mmm  hall_number: 400, V_con: 4, EC_con: 4
_audit_creation_date              2025-03-06
_audit_creation_method            'MOFbuilder_1.0'
_symmetry_space_group_name_H-M    'P1'
_symmetry_Int_Tables_number       1
_symmetry_cell_setting            triclinic
loop_
_symmetry_equiv_pos_as_xyz
  x,y,z
_cell_length_a                    49.845699999999994
_cell_length_b                    49.845699999999994
_cell_length_c                    32.3854
_cell_angle_alpha                 90.0
_cell_angle_beta                  90.0
_cell_angle_gamma                 90.0
loop_
_atom_site_label
_atom_site_type_symbol
_atom_site_fract_x
_atom_site_fract_y
_atom_site_fract_z
V1    V   0.10031  0.39969  0.34561
V2    V   0.10031  0.39969  0.65439
V3    V   0.10031  0.60031  0.34561
V4    V   0.10031  0.60031  0.65439
V5    V   0.39969  0.10031  0.34561
V6    V   0.39969  0.10031  0.65439
V7    V   0.39969  0.89969  0.34561
V8    V   0.39969  0.89969  0.65439
V9    V   0.60031  0.10031  0.34561
V10   V   0.60031  0.10031  0.65439
V11   V   0.60031  0.89969  0.34561
V12   V   0.60031  0.89969  0.65439
V13   V   0.89969  0.39969  0.34561
V14   V   0.89969  0.39969  0.65439
V15   V   0.89969  0.60031  0.34561
V16   V   0.89969  0.60031  0.65439
EC1    EC   0.10031  0.24217  0.15439
EC2    EC   0.10031  0.24217  0.84561
EC3    EC   0.10031  0.75783  0.15439
EC4    EC   0.10031  0.75783  0.84561
EC5    EC   0.24217  0.10031  0.15439
EC6    EC   0.24217  0.10031  0.84561
EC7    EC   0.24217  0.89969  0.15439
EC8    EC   0.24217  0.89969  0.84561
EC9    EC   0.75783  0.10031  0.15439
EC10   EC   0.75783  0.10031  0.84561
EC11   EC   0.75783  0.89969  0.15439
EC12   EC   0.75783  0.89969  0.84561
EC13   EC   0.89969  0.24217  0.15439
EC14   EC   0.89969  0.24217  0.84561
EC15   EC   0.89969  0.75783  0.15439
EC16   EC   0.89969  0.75783  0.84561
E1    E   0.00000  0.24217  0.15439
E2    E   0.00000  0.24217  0.84561
E3    E   0.00000  0.39969  0.34561
E4    E   0.00000  0.39969  0.65439
E5    E   0.00000  0.60031  0.34561
E6    E   0.00000  0.60031  0.65439
E7    E   0.00000  0.75783  0.15439
E8    E   0.00000  0.75783  0.84561
E9    E   0.10031  0.24217  0.00000
E10   E   0.10031  0.32093  0.25000
E11   E   0.10031  0.32093  0.75000
E12   E   0.10031  0.39969  0.50000
E13   E   0.10031  0.50000  0.34561
E14   E   0.10031  0.50000  0.65439
E15   E   0.10031  0.60031  0.50000
E16   E   0.10031  0.67907  0.25000
E17   E   0.10031  0.67907  0.75000
E18   E   0.10031  0.75783  0.00000
E19   E   0.17124  0.17124  0.15439
E20   E   0.17124  0.17124  0.84561
E21   E   0.17124  0.82876  0.15439
E22   E   0.17124  0.82876  0.84561
E23   E   0.24217  0.00000  0.15439
E24   E   0.24217  0.00000  0.84561
E25   E   0.24217  0.10031  0.00000
E26   E   0.24217  0.89969  0.00000
E27   E   0.32093  0.10031  0.25000
E28   E   0.32093  0.10031  0.75000
E29   E   0.32093  0.89969  0.25000
E30   E   0.32093  0.89969  0.75000
E31   E   0.39969  0.00000  0.34561
E32   E   0.39969  0.00000  0.65439
E33   E   0.39969  0.10031  0.50000
E34   E   0.39969  0.89969  0.50000
E35   E   0.50000  0.10031  0.34561
E36   E   0.50000  0.10031  0.65439
E37   E   0.50000  0.89969  0.34561
E38   E   0.50000  0.89969  0.65439
E39   E   0.60031  0.00000  0.34561
E40   E   0.60031  0.00000  0.65439
E41   E   0.60031  0.10031  0.50000
E42   E   0.60031  0.89969  0.50000
E43   E   0.67907  0.10031  0.25000
E44   E   0.67907  0.10031  0.75000
E45   E   0.67907  0.89969  0.25000
E46   E   0.67907  0.89969  0.75000
E47   E   0.75783  0.00000  0.15439
E48   E   0.75783  0.00000  0.84561
E49   E   0.75783  0.10031  0.00000
E50   E   0.75783  0.89969  0.00000
E51   E   0.82876  0.17124  0.15439
E52   E   0.82876  0.17124  0.84561
E53   E   0.82876  0.82876  0.15439
E54   E   0.82876  0.82876  0.84561
E55   E   0.89969  0.24217  0.00000
E56   E   0.89969  0.32093  0.25000
E57   E   0.89969  0.32093  0.75000
E58   E   0.89969  0.39969  0.50000
E59   E   0.89969  0.50000  0.34561
E60   E   0.89969  0.50000  0.65439
E61   E   0.89969  0.60031  0.50000
E62   E   0.89969  0.67907  0.25000
E63   E   0.89969  0.67907  0.75000
E64   E   0.89969  0.75783  0.00000
loop_
