data_bcp_Cmma  hall_number: 317, V_con: 4, EC_con: 4
_audit_creation_date              2025-03-06
_audit_creation_method            'MOFbuilder_1.0'
_symmetry_space_group_name_H-M    'P1'
_symmetry_Int_Tables_number       1
_symmetry_cell_setting            triclinic
loop_
_symmetry_equiv_pos_as_xyz
  x,y,z
_cell_length_a                    46.14359999999999
_cell_length_b                    17.5613
_cell_length_c                    23.5624
_cell_angle_alpha                 90.0
_cell_angle_beta                  90.0
_cell_angle_gamma                 90.0
loop_
_atom_site_label
_atom_site_type_symbol
_atom_site_fract_x
_atom_site_fract_y
_atom_site_fract_z
V1    V   0.00000  0.25000  0.39845
V2    V   0.00000  0.25000  0.60155
V3    V   0.00000  0.75000  0.39845
V4    V   0.00000  0.75000  0.60155
V5    V   0.50000  0.25000  0.39845
V6    V   0.50000  0.25000  0.60155
V7    V   0.50000  0.75000  0.39845
V8    V   0.50000  0.75000  0.60155
EC1    EC   0.15486  0.25000  0.10155
EC2    EC   0.15486  0.25000  0.89845
EC3    EC   0.15486  0.75000  0.10155
EC4    EC   0.15486  0.75000  0.89845
EC5    EC   0.34514  0.25000  0.10155
EC6    EC   0.34514  0.25000  0.89845
EC7    EC   0.34514  0.75000  0.10155
EC8    EC   0.34514  0.75000  0.89845
EC9    EC   0.65486  0.25000  0.10155
EC10   EC   0.65486  0.25000  0.89845
EC11   EC   0.65486  0.75000  0.10155
EC12   EC   0.65486  0.75000  0.89845
EC13   EC   0.84514  0.25000  0.10155
EC14   EC   0.84514  0.25000  0.89845
EC15   EC   0.84514  0.75000  0.10155
EC16   EC   0.84514  0.75000  0.89845
E1    E   0.00000  0.00000  0.50000
E2    E   0.00000  0.50000  0.50000
E3    E   0.07743  0.25000  0.25000
E4    E   0.07743  0.25000  0.75000
E5    E   0.07743  0.75000  0.25000
E6    E   0.07743  0.75000  0.75000
E7    E   0.15486  0.00000  0.00000
E8    E   0.15486  0.50000  0.00000
E9    E   0.25000  0.25000  0.00000
E10   E   0.25000  0.75000  0.00000
E11   E   0.34514  0.00000  0.00000
E12   E   0.34514  0.50000  0.00000
E13   E   0.42257  0.25000  0.25000
E14   E   0.42257  0.25000  0.75000
E15   E   0.42257  0.75000  0.25000
E16   E   0.42257  0.75000  0.75000
E17   E   0.50000  0.00000  0.50000
E18   E   0.50000  0.50000  0.50000
E19   E   0.57743  0.25000  0.25000
E20   E   0.57743  0.25000  0.75000
E21   E   0.57743  0.75000  0.25000
E22   E   0.57743  0.75000  0.75000
E23   E   0.65486  0.00000  0.00000
E24   E   0.65486  0.50000  0.00000
E25   E   0.75000  0.25000  0.00000
E26   E   0.75000  0.75000  0.00000
E27   E   0.84514  0.00000  0.00000
E28   E   0.84514  0.50000  0.00000
E29   E   0.92257  0.25000  0.25000
E30   E   0.92257  0.25000  0.75000
E31   E   0.92257  0.75000  0.25000
E32   E   0.92257  0.75000  0.75000
loop_
