data_bcs-a_Ia-3d  hall_number: 530, V_con: 5
_audit_creation_date              2025-03-06
_audit_creation_method            'MOFbuilder_1.0'
_symmetry_space_group_name_H-M    'P1'
_symmetry_Int_Tables_number       1
_symmetry_cell_setting            triclinic
loop_
_symmetry_equiv_pos_as_xyz
  x,y,z
_cell_length_a                    54.2952
_cell_length_b                    54.2952
_cell_length_c                    54.2952
_cell_angle_alpha                 90.0
_cell_angle_beta                  90.0
_cell_angle_gamma                 90.0
loop_
_atom_site_label
_atom_site_type_symbol
_atom_site_fract_x
_atom_site_fract_y
_atom_site_fract_z
V1    V   0.04301  0.09388  0.57936
V2    V   0.04301  0.40612  0.07936
V3    V   0.04301  0.59388  0.42064
V4    V   0.04301  0.90612  0.92064
V5    V   0.07936  0.04301  0.40612
V6    V   0.07936  0.45699  0.90612
V7    V   0.07936  0.54301  0.59388
V8    V   0.07936  0.95699  0.09388
V9    V   0.09388  0.07936  0.95699
V10   V   0.09388  0.42064  0.45699
V11   V   0.09388  0.57936  0.04301
V12   V   0.09388  0.92064  0.54301
V13   V   0.15612  0.20699  0.67064
V14   V   0.15612  0.29301  0.17064
V15   V   0.15612  0.70699  0.32936
V16   V   0.15612  0.79301  0.82936
V17   V   0.17064  0.15612  0.29301
V18   V   0.17064  0.34388  0.79301
V19   V   0.17064  0.65612  0.70699
V20   V   0.17064  0.84388  0.20699
V21   V   0.20699  0.17064  0.84388
V22   V   0.20699  0.32936  0.34388
V23   V   0.20699  0.67064  0.15612
V24   V   0.20699  0.82936  0.65612
V25   V   0.29301  0.17064  0.15612
V26   V   0.29301  0.32936  0.65612
V27   V   0.29301  0.67064  0.84388
V28   V   0.29301  0.82936  0.34388
V29   V   0.32936  0.15612  0.70699
V30   V   0.32936  0.34388  0.20699
V31   V   0.32936  0.65612  0.29301
V32   V   0.32936  0.84388  0.79301
V33   V   0.34388  0.20699  0.32936
V34   V   0.34388  0.29301  0.82936
V35   V   0.34388  0.70699  0.67064
V36   V   0.34388  0.79301  0.17064
V37   V   0.40612  0.07936  0.04301
V38   V   0.40612  0.42064  0.54301
V39   V   0.40612  0.57936  0.95699
V40   V   0.40612  0.92064  0.45699
V41   V   0.42064  0.04301  0.59388
V42   V   0.42064  0.45699  0.09388
V43   V   0.42064  0.54301  0.40612
V44   V   0.42064  0.95699  0.90612
V45   V   0.45699  0.09388  0.42064
V46   V   0.45699  0.40612  0.92064
V47   V   0.45699  0.59388  0.57936
V48   V   0.45699  0.90612  0.07936
V49   V   0.54301  0.09388  0.92064
V50   V   0.54301  0.40612  0.42064
V51   V   0.54301  0.59388  0.07936
V52   V   0.54301  0.90612  0.57936
V53   V   0.57936  0.04301  0.09388
V54   V   0.57936  0.45699  0.59388
V55   V   0.57936  0.54301  0.90612
V56   V   0.57936  0.95699  0.40612
V57   V   0.59388  0.07936  0.54301
V58   V   0.59388  0.42064  0.04301
V59   V   0.59388  0.57936  0.45699
V60   V   0.59388  0.92064  0.95699
V61   V   0.65612  0.20699  0.82936
V62   V   0.65612  0.29301  0.32936
V63   V   0.65612  0.70699  0.17064
V64   V   0.65612  0.79301  0.67064
V65   V   0.67064  0.15612  0.20699
V66   V   0.67064  0.34388  0.70699
V67   V   0.67064  0.65612  0.79301
V68   V   0.67064  0.84388  0.29301
V69   V   0.70699  0.17064  0.65612
V70   V   0.70699  0.32936  0.15612
V71   V   0.70699  0.67064  0.34388
V72   V   0.70699  0.82936  0.84388
V73   V   0.79301  0.17064  0.34388
V74   V   0.79301  0.32936  0.84388
V75   V   0.79301  0.67064  0.65612
V76   V   0.79301  0.82936  0.15612
V77   V   0.82936  0.15612  0.79301
V78   V   0.82936  0.34388  0.29301
V79   V   0.82936  0.65612  0.20699
V80   V   0.82936  0.84388  0.70699
V81   V   0.84388  0.20699  0.17064
V82   V   0.84388  0.29301  0.67064
V83   V   0.84388  0.70699  0.82936
V84   V   0.84388  0.79301  0.32936
V85   V   0.90612  0.07936  0.45699
V86   V   0.90612  0.42064  0.95699
V87   V   0.90612  0.57936  0.54301
V88   V   0.90612  0.92064  0.04301
V89   V   0.92064  0.04301  0.90612
V90   V   0.92064  0.45699  0.40612
V91   V   0.92064  0.54301  0.09388
V92   V   0.92064  0.95699  0.59388
V93   V   0.95699  0.09388  0.07936
V94   V   0.95699  0.40612  0.57936
V95   V   0.95699  0.59388  0.92064
V96   V   0.95699  0.90612  0.42064
E1    E   0.00726  0.06118  0.93156
E2    E   0.00726  0.43882  0.43156
E3    E   0.00726  0.56118  0.06844
E4    E   0.00726  0.93882  0.56844
E5    E   0.01818  0.02544  0.08662
E6    E   0.01818  0.47456  0.58662
E7    E   0.01818  0.52544  0.91338
E8    E   0.01818  0.97456  0.41338
E9    E   0.02544  0.08662  0.01818
E10   E   0.02544  0.41338  0.51818
E11   E   0.02544  0.58662  0.98182
E12   E   0.02544  0.91338  0.48182
E13   E   0.06118  0.06844  0.49274
E14   E   0.06118  0.43156  0.99274
E15   E   0.06118  0.56844  0.50726
E16   E   0.06118  0.93156  0.00726
E17   E   0.06844  0.00726  0.56118
E18   E   0.06844  0.49274  0.06118
E19   E   0.06844  0.50726  0.43882
E20   E   0.06844  0.99274  0.93882
E21   E   0.08662  0.01818  0.02544
E22   E   0.08662  0.48182  0.52544
E23   E   0.08662  0.51818  0.97456
E24   E   0.08662  0.98182  0.47456
E25   E   0.09956  0.15044  0.62500
E26   E   0.09956  0.34956  0.12500
E27   E   0.09956  0.65044  0.37500
E28   E   0.09956  0.84956  0.87500
E29   E   0.09956  0.15044  0.62500
E30   E   0.09956  0.34956  0.12500
E31   E   0.09956  0.65044  0.37500
E32   E   0.09956  0.84956  0.87500
E33   E   0.12500  0.09956  0.34956
E34   E   0.12500  0.09956  0.34956
E35   E   0.12500  0.40044  0.84956
E36   E   0.12500  0.59956  0.65044
E37   E   0.12500  0.90044  0.15044
E38   E   0.15044  0.12500  0.90044
E39   E   0.15044  0.37500  0.40044
E40   E   0.15044  0.62500  0.09956
E41   E   0.15044  0.62500  0.09956
E42   E   0.15044  0.87500  0.59956
E43   E   0.16338  0.22456  0.23182
E44   E   0.16338  0.27544  0.73182
E45   E   0.16338  0.72456  0.76818
E46   E   0.16338  0.77544  0.26818
E47   E   0.18156  0.18882  0.75726
E48   E   0.18156  0.31118  0.25726
E49   E   0.18156  0.68882  0.24274
E50   E   0.18156  0.81118  0.74274
E51   E   0.18882  0.24274  0.31844
E52   E   0.18882  0.25726  0.81844
E53   E   0.18882  0.74274  0.68156
E54   E   0.18882  0.75726  0.18156
E55   E   0.22456  0.23182  0.16338
E56   E   0.22456  0.26818  0.66338
E57   E   0.22456  0.73182  0.83662
E58   E   0.22456  0.76818  0.33662
E59   E   0.23182  0.16338  0.22456
E60   E   0.23182  0.33662  0.72456
E61   E   0.23182  0.66338  0.77544
E62   E   0.23182  0.83662  0.27544
E63   E   0.24274  0.18156  0.68882
E64   E   0.24274  0.31844  0.18882
E65   E   0.24274  0.68156  0.31118
E66   E   0.24274  0.81844  0.81118
E67   E   0.25726  0.18156  0.31118
E68   E   0.25726  0.31844  0.81118
E69   E   0.25726  0.68156  0.68882
E70   E   0.25726  0.81844  0.18882
E71   E   0.26818  0.16338  0.77544
E72   E   0.26818  0.33662  0.27544
E73   E   0.26818  0.66338  0.22456
E74   E   0.26818  0.83662  0.72456
E75   E   0.27544  0.23182  0.83662
E76   E   0.27544  0.26818  0.33662
E77   E   0.27544  0.73182  0.16338
E78   E   0.27544  0.76818  0.66338
E79   E   0.31118  0.24274  0.68156
E80   E   0.31118  0.25726  0.18156
E81   E   0.31118  0.74274  0.31844
E82   E   0.31118  0.75726  0.81844
E83   E   0.31844  0.18882  0.24274
E84   E   0.31844  0.31118  0.74274
E85   E   0.31844  0.68882  0.75726
E86   E   0.31844  0.81118  0.25726
E87   E   0.33662  0.22456  0.76818
E88   E   0.33662  0.27544  0.26818
E89   E   0.33662  0.72456  0.23182
E90   E   0.33662  0.77544  0.73182
E91   E   0.34956  0.12500  0.09956
E92   E   0.34956  0.12500  0.09956
E93   E   0.34956  0.37500  0.59956
E94   E   0.34956  0.62500  0.90044
E95   E   0.34956  0.87500  0.40044
E96   E   0.37500  0.09956  0.65044
E97   E   0.37500  0.09956  0.65044
E98   E   0.37500  0.40044  0.15044
E99   E   0.37500  0.59956  0.34956
E100  E   0.37500  0.90044  0.84956
E101  E   0.40044  0.15044  0.37500
E102  E   0.40044  0.34956  0.87500
E103  E   0.40044  0.65044  0.62500
E104  E   0.40044  0.84956  0.12500
E105  E   0.41338  0.01818  0.97456
E106  E   0.41338  0.48182  0.47456
E107  E   0.41338  0.51818  0.02544
E108  E   0.41338  0.98182  0.52544
E109  E   0.43156  0.00726  0.43882
E110  E   0.43156  0.49274  0.93882
E111  E   0.43156  0.50726  0.56118
E112  E   0.43156  0.99274  0.06118
E113  E   0.43882  0.06844  0.50726
E114  E   0.43882  0.43156  0.00726
E115  E   0.43882  0.56844  0.49274
E116  E   0.43882  0.93156  0.99274
E117  E   0.47456  0.08662  0.98182
E118  E   0.47456  0.41338  0.48182
E119  E   0.47456  0.58662  0.01818
E120  E   0.47456  0.91338  0.51818
E121  E   0.48182  0.02544  0.91338
E122  E   0.48182  0.47456  0.41338
E123  E   0.48182  0.52544  0.08662
E124  E   0.48182  0.97456  0.58662
E125  E   0.49274  0.06118  0.06844
E126  E   0.49274  0.43882  0.56844
E127  E   0.49274  0.56118  0.93156
E128  E   0.49274  0.93882  0.43156
E129  E   0.50726  0.06118  0.56844
E130  E   0.50726  0.43882  0.06844
E131  E   0.50726  0.56118  0.43156
E132  E   0.50726  0.93882  0.93156
E133  E   0.51818  0.02544  0.41338
E134  E   0.51818  0.47456  0.91338
E135  E   0.51818  0.52544  0.58662
E136  E   0.51818  0.97456  0.08662
E137  E   0.52544  0.08662  0.48182
E138  E   0.52544  0.41338  0.98182
E139  E   0.52544  0.58662  0.51818
E140  E   0.52544  0.91338  0.01818
E141  E   0.56118  0.06844  0.00726
E142  E   0.56118  0.43156  0.50726
E143  E   0.56118  0.56844  0.99274
E144  E   0.56118  0.93156  0.49274
E145  E   0.56844  0.00726  0.93882
E146  E   0.56844  0.49274  0.43882
E147  E   0.56844  0.50726  0.06118
E148  E   0.56844  0.99274  0.56118
E149  E   0.58662  0.01818  0.47456
E150  E   0.58662  0.48182  0.97456
E151  E   0.58662  0.51818  0.52544
E152  E   0.58662  0.98182  0.02544
E153  E   0.59956  0.15044  0.87500
E154  E   0.59956  0.34956  0.37500
E155  E   0.59956  0.65044  0.12500
E156  E   0.59956  0.84956  0.62500
E157  E   0.62500  0.09956  0.15044
E158  E   0.62500  0.09956  0.15044
E159  E   0.62500  0.40044  0.65044
E160  E   0.62500  0.59956  0.84956
E161  E   0.62500  0.90044  0.34956
E162  E   0.65044  0.12500  0.59956
E163  E   0.65044  0.37500  0.09956
E164  E   0.65044  0.37500  0.09956
E165  E   0.65044  0.62500  0.40044
E166  E   0.65044  0.87500  0.90044
E167  E   0.66338  0.22456  0.26818
E168  E   0.66338  0.27544  0.76818
E169  E   0.66338  0.72456  0.73182
E170  E   0.66338  0.77544  0.23182
E171  E   0.68156  0.18882  0.74274
E172  E   0.68156  0.31118  0.24274
E173  E   0.68156  0.68882  0.25726
E174  E   0.68156  0.81118  0.75726
E175  E   0.68882  0.24274  0.18156
E176  E   0.68882  0.25726  0.68156
E177  E   0.68882  0.74274  0.81844
E178  E   0.68882  0.75726  0.31844
E179  E   0.72456  0.23182  0.33662
E180  E   0.72456  0.26818  0.83662
E181  E   0.72456  0.73182  0.66338
E182  E   0.72456  0.76818  0.16338
E183  E   0.73182  0.16338  0.27544
E184  E   0.73182  0.33662  0.77544
E185  E   0.73182  0.66338  0.72456
E186  E   0.73182  0.83662  0.22456
E187  E   0.74274  0.18156  0.81118
E188  E   0.74274  0.31844  0.31118
E189  E   0.74274  0.68156  0.18882
E190  E   0.74274  0.81844  0.68882
E191  E   0.75726  0.18156  0.18882
E192  E   0.75726  0.31844  0.68882
E193  E   0.75726  0.68156  0.81118
E194  E   0.75726  0.81844  0.31118
E195  E   0.76818  0.16338  0.72456
E196  E   0.76818  0.33662  0.22456
E197  E   0.76818  0.66338  0.27544
E198  E   0.76818  0.83662  0.77544
E199  E   0.77544  0.23182  0.66338
E200  E   0.77544  0.26818  0.16338
E201  E   0.77544  0.73182  0.33662
E202  E   0.77544  0.76818  0.83662
E203  E   0.81118  0.24274  0.81844
E204  E   0.81118  0.25726  0.31844
E205  E   0.81118  0.74274  0.18156
E206  E   0.81118  0.75726  0.68156
E207  E   0.81844  0.18882  0.25726
E208  E   0.81844  0.31118  0.75726
E209  E   0.81844  0.68882  0.74274
E210  E   0.81844  0.81118  0.24274
E211  E   0.83662  0.22456  0.73182
E212  E   0.83662  0.27544  0.23182
E213  E   0.83662  0.72456  0.26818
E214  E   0.83662  0.77544  0.76818
E215  E   0.84956  0.12500  0.40044
E216  E   0.84956  0.37500  0.90044
E217  E   0.84956  0.62500  0.59956
E218  E   0.84956  0.87500  0.09956
E219  E   0.84956  0.87500  0.09956
E220  E   0.87500  0.09956  0.84956
E221  E   0.87500  0.09956  0.84956
E222  E   0.87500  0.40044  0.34956
E223  E   0.87500  0.59956  0.15044
E224  E   0.87500  0.90044  0.65044
E225  E   0.90044  0.15044  0.12500
E226  E   0.90044  0.34956  0.62500
E227  E   0.90044  0.65044  0.87500
E228  E   0.90044  0.84956  0.37500
E229  E   0.91338  0.01818  0.52544
E230  E   0.91338  0.48182  0.02544
E231  E   0.91338  0.51818  0.47456
E232  E   0.91338  0.98182  0.97456
E233  E   0.93156  0.00726  0.06118
E234  E   0.93156  0.49274  0.56118
E235  E   0.93156  0.50726  0.93882
E236  E   0.93156  0.99274  0.43882
E237  E   0.93882  0.06844  0.99274
E238  E   0.93882  0.43156  0.49274
E239  E   0.93882  0.56844  0.00726
E240  E   0.93882  0.93156  0.50726
E241  E   0.97456  0.08662  0.51818
E242  E   0.97456  0.41338  0.01818
E243  E   0.97456  0.58662  0.48182
E244  E   0.97456  0.91338  0.98182
E245  E   0.98182  0.02544  0.58662
E246  E   0.98182  0.47456  0.08662
E247  E   0.98182  0.52544  0.41338
E248  E   0.98182  0.97456  0.91338
E249  E   0.99274  0.06118  0.43156
E250  E   0.99274  0.43882  0.93156
E251  E   0.99274  0.56118  0.56844
E252  E   0.99274  0.93882  0.06844
loop_
