data_bcu-x-a_Im-3m  hall_number: 529, V_con: 5, EC_con: 4
_audit_creation_date              2025-03-06
_audit_creation_method            'MOFbuilder_1.0'
_symmetry_space_group_name_H-M    'P1'
_symmetry_Int_Tables_number       1
_symmetry_cell_setting            triclinic
loop_
_symmetry_equiv_pos_as_xyz
  x,y,z
_cell_length_a                    33.5635
_cell_length_b                    33.5635
_cell_length_c                    33.5635
_cell_angle_alpha                 90.0
_cell_angle_beta                  90.0
_cell_angle_gamma                 90.0
loop_
_atom_site_label
_atom_site_type_symbol
_atom_site_fract_x
_atom_site_fract_y
_atom_site_fract_z
V1    V   0.00000  0.00000  0.35103
V2    V   0.00000  0.00000  0.64897
V3    V   0.00000  0.35103  0.00000
V4    V   0.00000  0.64897  0.00000
V5    V   0.14897  0.50000  0.50000
V6    V   0.35103  0.00000  0.00000
V7    V   0.50000  0.14897  0.50000
V8    V   0.50000  0.50000  0.14897
V9    V   0.50000  0.50000  0.85103
V10   V   0.50000  0.85103  0.50000
V11   V   0.64897  0.00000  0.00000
V12   V   0.85103  0.50000  0.50000
EC1    EC   0.16399  0.16399  0.16399
EC2    EC   0.16399  0.16399  0.83601
EC3    EC   0.16399  0.83601  0.16399
EC4    EC   0.16399  0.83601  0.83601
EC5    EC   0.33601  0.33601  0.33601
EC6    EC   0.33601  0.33601  0.66399
EC7    EC   0.33601  0.66399  0.33601
EC8    EC   0.33601  0.66399  0.66399
EC9    EC   0.66399  0.33601  0.33601
EC10   EC   0.66399  0.33601  0.66399
EC11   EC   0.66399  0.66399  0.33601
EC12   EC   0.66399  0.66399  0.66399
EC13   EC   0.83601  0.16399  0.16399
EC14   EC   0.83601  0.16399  0.83601
EC15   EC   0.83601  0.83601  0.16399
EC16   EC   0.83601  0.83601  0.83601
E1    E   0.00000  0.00000  0.50000
E2    E   0.00000  0.50000  0.00000
E3    E   0.00000  0.50000  0.50000
E4    E   0.08200  0.08200  0.25751
E5    E   0.08200  0.08200  0.74249
E6    E   0.08200  0.25751  0.08200
E7    E   0.08200  0.25751  0.91800
E8    E   0.08200  0.74249  0.08200
E9    E   0.08200  0.74249  0.91800
E10   E   0.08200  0.91800  0.25751
E11   E   0.08200  0.91800  0.74249
E12   E   0.24249  0.41800  0.41800
E13   E   0.24249  0.41800  0.58200
E14   E   0.24249  0.58200  0.41800
E15   E   0.24249  0.58200  0.58200
E16   E   0.25000  0.25000  0.25000
E17   E   0.25000  0.25000  0.75000
E18   E   0.25000  0.75000  0.25000
E19   E   0.25000  0.75000  0.75000
E20   E   0.25751  0.08200  0.08200
E21   E   0.25751  0.08200  0.91800
E22   E   0.25751  0.91800  0.08200
E23   E   0.25751  0.91800  0.91800
E24   E   0.41800  0.24249  0.41800
E25   E   0.41800  0.24249  0.58200
E26   E   0.41800  0.41800  0.24249
E27   E   0.41800  0.41800  0.75751
E28   E   0.41800  0.58200  0.24249
E29   E   0.41800  0.58200  0.75751
E30   E   0.41800  0.75751  0.41800
E31   E   0.41800  0.75751  0.58200
E32   E   0.50000  0.00000  0.00000
E33   E   0.50000  0.00000  0.50000
E34   E   0.50000  0.50000  0.00000
E35   E   0.58200  0.24249  0.41800
E36   E   0.58200  0.24249  0.58200
E37   E   0.58200  0.41800  0.24249
E38   E   0.58200  0.41800  0.75751
E39   E   0.58200  0.58200  0.24249
E40   E   0.58200  0.58200  0.75751
E41   E   0.58200  0.75751  0.41800
E42   E   0.58200  0.75751  0.58200
E43   E   0.74249  0.08200  0.08200
E44   E   0.74249  0.08200  0.91800
E45   E   0.74249  0.91800  0.08200
E46   E   0.74249  0.91800  0.91800
E47   E   0.75000  0.25000  0.25000
E48   E   0.75000  0.25000  0.75000
E49   E   0.75000  0.75000  0.25000
E50   E   0.75000  0.75000  0.75000
E51   E   0.75751  0.41800  0.41800
E52   E   0.75751  0.41800  0.58200
E53   E   0.75751  0.58200  0.41800
E54   E   0.75751  0.58200  0.58200
E55   E   0.91800  0.08200  0.25751
E56   E   0.91800  0.08200  0.74249
E57   E   0.91800  0.25751  0.08200
E58   E   0.91800  0.25751  0.91800
E59   E   0.91800  0.74249  0.08200
E60   E   0.91800  0.74249  0.91800
E61   E   0.91800  0.91800  0.25751
E62   E   0.91800  0.91800  0.74249
loop_
