data_bcw_Pa-3  hall_number: 501, V_con: 4, EC_con: 4
_audit_creation_date              2025-03-06
_audit_creation_method            'MOFbuilder_1.0'
_symmetry_space_group_name_H-M    'P1'
_symmetry_Int_Tables_number       1
_symmetry_cell_setting            triclinic
loop_
_symmetry_equiv_pos_as_xyz
  x,y,z
_cell_length_a                    46.9109
_cell_length_b                    46.9109
_cell_length_c                    46.9109
_cell_angle_alpha                 90.0
_cell_angle_beta                  90.0
_cell_angle_gamma                 90.0
loop_
_atom_site_label
_atom_site_type_symbol
_atom_site_fract_x
_atom_site_fract_y
_atom_site_fract_z
V1    V   0.00642  0.17585  0.40738
V2    V   0.00642  0.32415  0.90738
V3    V   0.09262  0.50642  0.17585
V4    V   0.09262  0.99358  0.67585
V5    V   0.17585  0.09262  0.50642
V6    V   0.17585  0.40738  0.00642
V7    V   0.32415  0.59262  0.50642
V8    V   0.32415  0.90738  0.00642
V9    V   0.40738  0.00642  0.17585
V10   V   0.40738  0.49358  0.67585
V11   V   0.49358  0.67585  0.40738
V12   V   0.49358  0.82415  0.90738
V13   V   0.50642  0.17585  0.09262
V14   V   0.50642  0.32415  0.59262
V15   V   0.59262  0.50642  0.32415
V16   V   0.59262  0.99358  0.82415
V17   V   0.67585  0.09262  0.99358
V18   V   0.67585  0.40738  0.49358
V19   V   0.82415  0.59262  0.99358
V20   V   0.82415  0.90738  0.49358
V21   V   0.90738  0.00642  0.32415
V22   V   0.90738  0.49358  0.82415
V23   V   0.99358  0.67585  0.09262
V24   V   0.99358  0.82415  0.59262
EC1    EC   0.03934  0.12697  0.83335
EC2    EC   0.03934  0.37303  0.33335
EC3    EC   0.12697  0.66665  0.53934
EC4    EC   0.12697  0.83335  0.03934
EC5    EC   0.16665  0.53934  0.37303
EC6    EC   0.16665  0.96066  0.87303
EC7    EC   0.33335  0.03934  0.37303
EC8    EC   0.33335  0.46066  0.87303
EC9    EC   0.37303  0.16665  0.53934
EC10   EC   0.37303  0.33335  0.03934
EC11   EC   0.46066  0.62697  0.83335
EC12   EC   0.46066  0.87303  0.33335
EC13   EC   0.53934  0.12697  0.66665
EC14   EC   0.53934  0.37303  0.16665
EC15   EC   0.62697  0.66665  0.96066
EC16   EC   0.62697  0.83335  0.46066
EC17   EC   0.66665  0.53934  0.12697
EC18   EC   0.66665  0.96066  0.62697
EC19   EC   0.83335  0.03934  0.12697
EC20   EC   0.83335  0.46066  0.62697
EC21   EC   0.87303  0.16665  0.96066
EC22   EC   0.87303  0.33335  0.46066
EC23   EC   0.96066  0.62697  0.66665
EC24   EC   0.96066  0.87303  0.16665
E1    E   0.02288  0.22556  0.87036
E2    E   0.02288  0.27444  0.37036
E3    E   0.04310  0.59114  0.13424
E4    E   0.04310  0.90886  0.63424
E5    E   0.04382  0.64681  0.60299
E6    E   0.04382  0.85319  0.10299
E7    E   0.06027  0.74540  0.56598
E8    E   0.06027  0.75460  0.06598
E9    E   0.06598  0.06027  0.75460
E10   E   0.06598  0.43973  0.25460
E11   E   0.09114  0.13424  0.45690
E12   E   0.09114  0.36576  0.95690
E13   E   0.10299  0.04382  0.85319
E14   E   0.10299  0.45618  0.35319
E15   E   0.12964  0.52288  0.27444
E16   E   0.12964  0.97712  0.77444
E17   E   0.13424  0.04310  0.59114
E18   E   0.13424  0.45690  0.09114
E19   E   0.14681  0.60299  0.45618
E20   E   0.14681  0.89701  0.95618
E21   E   0.22556  0.62964  0.52288
E22   E   0.22556  0.87036  0.02288
E23   E   0.24540  0.56598  0.43973
E24   E   0.24540  0.93402  0.93973
E25   E   0.25460  0.06598  0.43973
E26   E   0.25460  0.43402  0.93973
E27   E   0.27444  0.12964  0.52288
E28   E   0.27444  0.37036  0.02288
E29   E   0.35319  0.10299  0.45618
E30   E   0.35319  0.39701  0.95618
E31   E   0.36576  0.54310  0.59114
E32   E   0.36576  0.95690  0.09114
E33   E   0.37036  0.02288  0.27444
E34   E   0.37036  0.47712  0.77444
E35   E   0.39701  0.54382  0.85319
E36   E   0.39701  0.95618  0.35319
E37   E   0.40886  0.63424  0.45690
E38   E   0.40886  0.86576  0.95690
E39   E   0.43402  0.56027  0.75460
E40   E   0.43402  0.93973  0.25460
E41   E   0.43973  0.24540  0.56598
E42   E   0.43973  0.25460  0.06598
E43   E   0.45618  0.14681  0.60299
E44   E   0.45618  0.35319  0.10299
E45   E   0.45690  0.09114  0.13424
E46   E   0.45690  0.40886  0.63424
E47   E   0.47712  0.72556  0.87036
E48   E   0.47712  0.77444  0.37036
E49   E   0.52288  0.22556  0.62964
E50   E   0.52288  0.27444  0.12964
E51   E   0.54310  0.59114  0.36576
E52   E   0.54310  0.90886  0.86576
E53   E   0.54382  0.64681  0.89701
E54   E   0.54382  0.85319  0.39701
E55   E   0.56027  0.74540  0.93402
E56   E   0.56027  0.75460  0.43402
E57   E   0.56598  0.06027  0.74540
E58   E   0.56598  0.43973  0.24540
E59   E   0.59114  0.13424  0.04310
E60   E   0.59114  0.36576  0.54310
E61   E   0.60299  0.04382  0.64681
E62   E   0.60299  0.45618  0.14681
E63   E   0.62964  0.52288  0.22556
E64   E   0.62964  0.97712  0.72556
E65   E   0.63424  0.04310  0.90886
E66   E   0.63424  0.45690  0.40886
E67   E   0.64681  0.60299  0.04382
E68   E   0.64681  0.89701  0.54382
E69   E   0.72556  0.62964  0.97712
E70   E   0.72556  0.87036  0.47712
E71   E   0.74540  0.56598  0.06027
E72   E   0.74540  0.93402  0.56027
E73   E   0.75460  0.06598  0.06027
E74   E   0.75460  0.43402  0.56027
E75   E   0.77444  0.12964  0.97712
E76   E   0.77444  0.37036  0.47712
E77   E   0.85319  0.10299  0.04382
E78   E   0.85319  0.39701  0.54382
E79   E   0.86576  0.54310  0.90886
E80   E   0.86576  0.95690  0.40886
E81   E   0.87036  0.02288  0.22556
E82   E   0.87036  0.47712  0.72556
E83   E   0.89701  0.54382  0.64681
E84   E   0.89701  0.95618  0.14681
E85   E   0.90886  0.63424  0.04310
E86   E   0.90886  0.86576  0.54310
E87   E   0.93402  0.56027  0.74540
E88   E   0.93402  0.93973  0.24540
E89   E   0.93973  0.24540  0.93402
E90   E   0.93973  0.25460  0.43402
E91   E   0.95618  0.14681  0.89701
E92   E   0.95618  0.35319  0.39701
E93   E   0.95690  0.09114  0.36576
E94   E   0.95690  0.40886  0.86576
E95   E   0.97712  0.72556  0.62964
E96   E   0.97712  0.77444  0.12964
loop_
