data_bcz_P4332  hall_number: 508, V_con: 4, EC_con: 4
_audit_creation_date              2025-03-06
_audit_creation_method            'MOFbuilder_1.0'
_symmetry_space_group_name_H-M    'P1'
_symmetry_Int_Tables_number       1
_symmetry_cell_setting            triclinic
loop_
_symmetry_equiv_pos_as_xyz
  x,y,z
_cell_length_a                    37.976800000000004
_cell_length_b                    37.976800000000004
_cell_length_c                    37.976800000000004
_cell_angle_alpha                 90.0
_cell_angle_beta                  90.0
_cell_angle_gamma                 90.0
loop_
_atom_site_label
_atom_site_type_symbol
_atom_site_fract_x
_atom_site_fract_y
_atom_site_fract_z
V1    V   0.01750  0.12500  0.23250
V2    V   0.01750  0.12500  0.23250
V3    V   0.12500  0.23250  0.01750
V4    V   0.12500  0.23250  0.01750
V5    V   0.23250  0.01750  0.12500
V6    V   0.23250  0.01750  0.12500
V7    V   0.26750  0.98250  0.62500
V8    V   0.26750  0.98250  0.62500
V9    V   0.37500  0.76750  0.51750
V10   V   0.48250  0.87500  0.73250
V11   V   0.48250  0.87500  0.73250
V12   V   0.51750  0.37500  0.76750
V13   V   0.62500  0.26750  0.98250
V14   V   0.62500  0.26750  0.98250
V15   V   0.73250  0.48250  0.87500
V16   V   0.73250  0.48250  0.87500
V17   V   0.76750  0.51750  0.37500
V18   V   0.87500  0.73250  0.48250
V19   V   0.87500  0.73250  0.48250
V20   V   0.98250  0.62500  0.26750
V21   V   0.98250  0.62500  0.26750
EC1    EC   0.01168  0.65208  0.69271
EC2    EC   0.05729  0.90208  0.76168
EC3    EC   0.09792  0.26168  0.44271
EC4    EC   0.15208  0.80729  0.98832
EC5    EC   0.19271  0.48832  0.34792
EC6    EC   0.23832  0.55729  0.59792
EC7    EC   0.26168  0.44271  0.09792
EC8    EC   0.30729  0.51168  0.84792
EC9    EC   0.34792  0.19271  0.48832
EC10   EC   0.40208  0.73832  0.94271
EC11   EC   0.44271  0.09792  0.26168
EC12   EC   0.48832  0.34792  0.19271
EC13   EC   0.51168  0.84792  0.30729
EC14   EC   0.55729  0.59792  0.23832
EC15   EC   0.59792  0.23832  0.55729
EC16   EC   0.65208  0.69271  0.01168
EC17   EC   0.69271  0.01168  0.65208
EC18   EC   0.73832  0.94271  0.40208
EC19   EC   0.76168  0.05729  0.90208
EC20   EC   0.80729  0.98832  0.15208
EC21   EC   0.84792  0.30729  0.51168
EC22   EC   0.90208  0.76168  0.05729
EC23   EC   0.94271  0.40208  0.73832
EC24   EC   0.98832  0.15208  0.80729
E1    E   0.02281  0.02708  0.78448
E2    E   0.02708  0.78448  0.02281
E3    E   0.03448  0.77708  0.72719
E4    E   0.05666  0.19229  0.91240
E5    E   0.05771  0.19334  0.33760
E6    E   0.07125  0.17875  0.12500
E7    E   0.07125  0.17875  0.12500
E8    E   0.08760  0.55666  0.30771
E9    E   0.10468  0.85468  0.87500
E10   E   0.12500  0.07125  0.17875
E11   E   0.12500  0.07125  0.17875
E12   E   0.12500  0.60468  0.64532
E13   E   0.14532  0.37500  0.39532
E14   E   0.14532  0.37500  0.39532
E15   E   0.16240  0.94229  0.69334
E16   E   0.17875  0.12500  0.07125
E17   E   0.17875  0.12500  0.07125
E18   E   0.19229  0.91240  0.05666
E19   E   0.19334  0.33760  0.05771
E20   E   0.21552  0.52281  0.47292
E21   E   0.22292  0.22719  0.46552
E22   E   0.22719  0.46552  0.22292
E23   E   0.27281  0.53448  0.72292
E24   E   0.27708  0.77281  0.96552
E25   E   0.28448  0.47719  0.97292
E26   E   0.30666  0.66240  0.55771
E27   E   0.30771  0.08760  0.55666
E28   E   0.32125  0.87500  0.57125
E29   E   0.32125  0.87500  0.57125
E30   E   0.33760  0.05771  0.19334
E31   E   0.35468  0.62500  0.89532
E32   E   0.37500  0.39532  0.14532
E33   E   0.37500  0.39532  0.14532
E34   E   0.37500  0.92875  0.67875
E35   E   0.39532  0.14532  0.37500
E36   E   0.39532  0.14532  0.37500
E37   E   0.41240  0.44334  0.80771
E38   E   0.42875  0.82125  0.62500
E39   E   0.42875  0.82125  0.62500
E40   E   0.44229  0.80666  0.83760
E41   E   0.44334  0.80771  0.41240
E42   E   0.46552  0.22292  0.22719
E43   E   0.47292  0.21552  0.52281
E44   E   0.47719  0.97292  0.28448
E45   E   0.52281  0.47292  0.21552
E46   E   0.52708  0.71552  0.97719
E47   E   0.53448  0.72292  0.27281
E48   E   0.55666  0.30771  0.08760
E49   E   0.55771  0.30666  0.66240
E50   E   0.57125  0.32125  0.87500
E51   E   0.57125  0.32125  0.87500
E52   E   0.58760  0.94334  0.69229
E53   E   0.60468  0.64532  0.12500
E54   E   0.62500  0.42875  0.82125
E55   E   0.62500  0.42875  0.82125
E56   E   0.62500  0.89532  0.35468
E57   E   0.64532  0.12500  0.60468
E58   E   0.66240  0.55771  0.30666
E59   E   0.67875  0.37500  0.92875
E60   E   0.69229  0.58760  0.94334
E61   E   0.69334  0.16240  0.94229
E62   E   0.71552  0.97719  0.52708
E63   E   0.72292  0.27281  0.53448
E64   E   0.72719  0.03448  0.77708
E65   E   0.77281  0.96552  0.27708
E66   E   0.77708  0.72719  0.03448
E67   E   0.78448  0.02281  0.02708
E68   E   0.80666  0.83760  0.44229
E69   E   0.80771  0.41240  0.44334
E70   E   0.82125  0.62500  0.42875
E71   E   0.82125  0.62500  0.42875
E72   E   0.83760  0.44229  0.80666
E73   E   0.85468  0.87500  0.10468
E74   E   0.87500  0.10468  0.85468
E75   E   0.87500  0.57125  0.32125
E76   E   0.87500  0.57125  0.32125
E77   E   0.89532  0.35468  0.62500
E78   E   0.91240  0.05666  0.19229
E79   E   0.92875  0.67875  0.37500
E80   E   0.94229  0.69334  0.16240
E81   E   0.94334  0.69229  0.58760
E82   E   0.96552  0.27708  0.77281
E83   E   0.97292  0.28448  0.47719
E84   E   0.97719  0.52708  0.71552
loop_
