data_beb_R-3m:H  hall_number: 166, V_con: 7, EC_con: 6
_audit_creation_date              2025-03-06
_audit_creation_method            'MOFbuilder_1.0'
_symmetry_space_group_name_H-M    'P1'
_symmetry_Int_Tables_number       1
_symmetry_cell_setting            triclinic
loop_
_symmetry_equiv_pos_as_xyz
  x,y,z
_cell_length_a                    26.1802
_cell_length_b                    26.1802
_cell_length_c                    73.3715
_cell_angle_alpha                 90.0
_cell_angle_beta                  90.0
_cell_angle_gamma                 120.0
loop_
_atom_site_label
_atom_site_type_symbol
_atom_site_fract_x
_atom_site_fract_y
_atom_site_fract_z
V1    V   0.25464  0.12732  0.35765
V2    V   0.25464  0.62732  0.14235
V3    V   0.75464  0.37268  0.85765
V4    V   0.75464  0.87268  0.64235
EC1    EC   0.25464  0.12732  0.10301
EC2    EC   0.25464  0.62732  0.39699
EC3    EC   0.75464  0.37268  0.60301
EC4    EC   0.75464  0.87268  0.89699
E1    E   0.06366  0.12732  0.10301
E2    E   0.06366  0.12732  0.35765
E3    E   0.06366  0.62732  0.14235
E4    E   0.06366  0.62732  0.39699
E5    E   0.23033  0.46066  0.43634
E6    E   0.23033  0.96066  0.06366
E7    E   0.33333  0.16667  0.03934
E8    E   0.33333  0.16667  0.16667
E9    E   0.33333  0.66667  0.33333
E10   E   0.33333  0.66667  0.46066
E11   E   0.35765  0.02432  0.33333
E12   E   0.35765  0.52432  0.16667
E13   E   0.56366  0.37268  0.60301
E14   E   0.56366  0.37268  0.85765
E15   E   0.56366  0.87268  0.64235
E16   E   0.56366  0.87268  0.89699
E17   E   0.73033  0.03934  0.93634
E18   E   0.73033  0.53934  0.56366
E19   E   0.83333  0.33333  0.53934
E20   E   0.83333  0.33333  0.66667
E21   E   0.83333  0.83333  0.83333
E22   E   0.83333  0.83333  0.96066
E23   E   0.85765  0.47568  0.83333
E24   E   0.85765  0.97568  0.66667
loop_
