data_bem_P4132  hall_number: 509, V_con: 14, EC_con: 12
_audit_creation_date              2025-03-06
_audit_creation_method            'MOFbuilder_1.0'
_symmetry_space_group_name_H-M    'P1'
_symmetry_Int_Tables_number       1
_symmetry_cell_setting            triclinic
loop_
_symmetry_equiv_pos_as_xyz
  x,y,z
_cell_length_a                    23.631500000000003
_cell_length_b                    23.631500000000003
_cell_length_c                    23.631500000000003
_cell_angle_alpha                 90.0
_cell_angle_beta                  90.0
_cell_angle_gamma                 90.0
loop_
_atom_site_label
_atom_site_type_symbol
_atom_site_fract_x
_atom_site_fract_y
_atom_site_fract_z
V1    V   0.03885  0.12500  0.78885
V2    V   0.03885  0.12500  0.78885
V3    V   0.12500  0.78885  0.03885
V4    V   0.12500  0.78885  0.03885
V5    V   0.21115  0.53885  0.37500
V6    V   0.21115  0.53885  0.37500
V7    V   0.28885  0.46115  0.87500
V8    V   0.28885  0.46115  0.87500
V9    V   0.37500  0.21115  0.53885
V10   V   0.37500  0.21115  0.53885
V11   V   0.46115  0.87500  0.28885
V12   V   0.46115  0.87500  0.28885
V13   V   0.53885  0.37500  0.21115
V14   V   0.53885  0.37500  0.21115
V15   V   0.62500  0.71115  0.96115
V16   V   0.71115  0.96115  0.62500
V17   V   0.78885  0.03885  0.12500
V18   V   0.78885  0.03885  0.12500
V19   V   0.87500  0.28885  0.46115
V20   V   0.87500  0.28885  0.46115
V21   V   0.96115  0.62500  0.71115
EC1    EC   0.06967  0.93033  0.43033
EC2    EC   0.18033  0.18033  0.18033
EC3    EC   0.31967  0.81967  0.68033
EC4    EC   0.43033  0.06967  0.93033
EC5    EC   0.56967  0.56967  0.56967
EC6    EC   0.68033  0.31967  0.81967
EC7    EC   0.81967  0.68033  0.31967
EC8    EC   0.93033  0.43033  0.06967
E1    E   0.00000  0.37500  0.75000
E2    E   0.00000  0.87500  0.75000
E3    E   0.01541  0.60959  0.34733
E4    E   0.01541  0.77767  0.57074
E5    E   0.02767  0.23459  0.32074
E6    E   0.02767  0.60959  0.05426
E7    E   0.04307  0.70693  0.87500
E8    E   0.04307  0.41385  0.41807
E9    E   0.04307  0.70693  0.87500
E10   E   0.05426  0.02767  0.60959
E11   E   0.05533  0.30533  0.12500
E12   E   0.05533  0.30533  0.12500
E13   E   0.07074  0.48459  0.22233
E14   E   0.08193  0.95693  0.91385
E15   E   0.08615  0.58193  0.54307
E16   E   0.09733  0.85959  0.23459
E17   E   0.10959  0.15267  0.98459
E18   E   0.10959  0.44574  0.97233
E19   E   0.12500  0.05533  0.30533
E20   E   0.12500  0.05533  0.30533
E21   E   0.12500  0.25000  0.50000
E22   E   0.12500  0.54307  0.79307
E23   E   0.14041  0.72233  0.69574
E24   E   0.14041  0.73459  0.40267
E25   E   0.15267  0.98459  0.10959
E26   E   0.16385  0.29307  0.83193
E27   E   0.16807  0.66385  0.20693
E28   E   0.17926  0.97233  0.73459
E29   E   0.19467  0.87500  0.55533
E30   E   0.19574  0.35959  0.27767
E31   E   0.20693  0.16807  0.66385
E32   E   0.20693  0.62500  0.95693
E33   E   0.20693  0.62500  0.95693
E34   E   0.22233  0.07074  0.48459
E35   E   0.22233  0.80426  0.85959
E36   E   0.23459  0.09733  0.85959
E37   E   0.23459  0.32074  0.02767
E38   E   0.25000  0.50000  0.12500
E39   E   0.25000  0.50000  0.62500
E40   E   0.26541  0.90267  0.35959
E41   E   0.26541  0.67926  0.52767
E42   E   0.27767  0.19574  0.35959
E43   E   0.27767  0.92926  0.98459
E44   E   0.29307  0.37500  0.45693
E45   E   0.29307  0.83193  0.16385
E46   E   0.30426  0.64041  0.77767
E47   E   0.30533  0.12500  0.05533
E48   E   0.30533  0.12500  0.05533
E49   E   0.32074  0.02767  0.23459
E50   E   0.33193  0.33615  0.70693
E51   E   0.33615  0.70693  0.33193
E52   E   0.34733  0.01541  0.60959
E53   E   0.35959  0.26541  0.90267
E54   E   0.35959  0.27767  0.19574
E55   E   0.37500  0.45693  0.29307
E56   E   0.37500  0.75000  0.00000
E57   E   0.37500  0.94467  0.80533
E58   E   0.39041  0.55426  0.47233
E59   E   0.39041  0.84733  0.48459
E60   E   0.40267  0.14041  0.73459
E61   E   0.41385  0.41807  0.04307
E62   E   0.41807  0.04307  0.41385
E63   E   0.42926  0.51541  0.72233
E64   E   0.44467  0.69467  0.62500
E65   E   0.44574  0.97233  0.10959
E66   E   0.45693  0.29307  0.37500
E67   E   0.45693  0.58615  0.91807
E68   E   0.47233  0.39041  0.55426
E69   E   0.47233  0.76541  0.82074
E70   E   0.48459  0.22233  0.07074
E71   E   0.48459  0.39041  0.84733
E72   E   0.50000  0.12500  0.25000
E73   E   0.50000  0.62500  0.25000
E74   E   0.51541  0.72233  0.42926
E75   E   0.51541  0.89041  0.65267
E76   E   0.52767  0.26541  0.67926
E77   E   0.52767  0.89041  0.94574
E78   E   0.54307  0.08615  0.58193
E79   E   0.54307  0.79307  0.12500
E80   E   0.55426  0.47233  0.39041
E81   E   0.55533  0.19467  0.87500
E82   E   0.57074  0.01541  0.77767
E83   E   0.58193  0.54307  0.08615
E84   E   0.58615  0.91807  0.45693
E85   E   0.59733  0.64041  0.76541
E86   E   0.60959  0.34733  0.01541
E87   E   0.60959  0.05426  0.02767
E88   E   0.62500  0.25000  0.50000
E89   E   0.62500  0.44467  0.69467
E90   E   0.62500  0.95693  0.20693
E91   E   0.62500  0.95693  0.20693
E92   E   0.64041  0.77767  0.30426
E93   E   0.64041  0.76541  0.59733
E94   E   0.65267  0.51541  0.89041
E95   E   0.66385  0.20693  0.16807
E96   E   0.66807  0.83615  0.79307
E97   E   0.67926  0.52767  0.26541
E98   E   0.69467  0.62500  0.44467
E99   E   0.69574  0.14041  0.72233
E100  E   0.70693  0.33193  0.33615
E101  E   0.70693  0.87500  0.04307
E102  E   0.70693  0.87500  0.04307
E103  E   0.72233  0.42926  0.51541
E104  E   0.72233  0.69574  0.14041
E105  E   0.73459  0.17926  0.97233
E106  E   0.73459  0.40267  0.14041
E107  E   0.75000  0.00000  0.37500
E108  E   0.75000  0.00000  0.87500
E109  E   0.76541  0.59733  0.64041
E110  E   0.76541  0.82074  0.47233
E111  E   0.77767  0.30426  0.64041
E112  E   0.77767  0.57074  0.01541
E113  E   0.79307  0.12500  0.54307
E114  E   0.79307  0.66807  0.83615
E115  E   0.80426  0.85959  0.22233
E116  E   0.80533  0.37500  0.94467
E117  E   0.82074  0.47233  0.76541
E118  E   0.83193  0.16385  0.29307
E119  E   0.83615  0.79307  0.66807
E120  E   0.84733  0.48459  0.39041
E121  E   0.85959  0.23459  0.09733
E122  E   0.85959  0.22233  0.80426
E123  E   0.87500  0.04307  0.70693
E124  E   0.87500  0.04307  0.70693
E125  E   0.87500  0.55533  0.19467
E126  E   0.87500  0.75000  0.00000
E127  E   0.89041  0.94574  0.52767
E128  E   0.89041  0.65267  0.51541
E129  E   0.90267  0.35959  0.26541
E130  E   0.91385  0.08193  0.95693
E131  E   0.91807  0.45693  0.58615
E132  E   0.92926  0.98459  0.27767
E133  E   0.94467  0.80533  0.37500
E134  E   0.94574  0.52767  0.89041
E135  E   0.95693  0.20693  0.62500
E136  E   0.95693  0.20693  0.62500
E137  E   0.95693  0.91385  0.08193
E138  E   0.97233  0.10959  0.44574
E139  E   0.97233  0.73459  0.17926
E140  E   0.98459  0.10959  0.15267
E141  E   0.98459  0.27767  0.92926
loop_
