data_bnl_Ibam  hall_number: 338, V_con: 4, EC_con: 4
_audit_creation_date              2025-03-06
_audit_creation_method            'MOFbuilder_1.0'
_symmetry_space_group_name_H-M    'P1'
_symmetry_Int_Tables_number       1
_symmetry_cell_setting            triclinic
loop_
_symmetry_equiv_pos_as_xyz
  x,y,z
_cell_length_a                    31.4607
_cell_length_b                    30.767000000000003
_cell_length_c                    50.8301
_cell_angle_alpha                 90.0
_cell_angle_beta                  90.0
_cell_angle_gamma                 90.0
loop_
_atom_site_label
_atom_site_type_symbol
_atom_site_fract_x
_atom_site_fract_y
_atom_site_fract_z
V1    V   0.20460  0.35874  0.09837
V2    V   0.20460  0.35874  0.90163
V3    V   0.20460  0.64126  0.40163
V4    V   0.20460  0.64126  0.59837
V5    V   0.29540  0.14126  0.40163
V6    V   0.29540  0.14126  0.59837
V7    V   0.29540  0.85874  0.09837
V8    V   0.29540  0.85874  0.90163
V9    V   0.70460  0.14126  0.09837
V10   V   0.70460  0.14126  0.90163
V11   V   0.70460  0.85874  0.40163
V12   V   0.70460  0.85874  0.59837
V13   V   0.79540  0.35874  0.40163
V14   V   0.79540  0.35874  0.59837
V15   V   0.79540  0.64126  0.09837
V16   V   0.79540  0.64126  0.90163
EC1    EC   0.09166  0.36119  0.33036
EC2    EC   0.09166  0.36119  0.66964
EC3    EC   0.09166  0.63881  0.16964
EC4    EC   0.09166  0.63881  0.83036
EC5    EC   0.40834  0.13881  0.16964
EC6    EC   0.40834  0.13881  0.83036
EC7    EC   0.40834  0.86119  0.33036
EC8    EC   0.40834  0.86119  0.66964
EC9    EC   0.59166  0.13881  0.33036
EC10   EC   0.59166  0.13881  0.66964
EC11   EC   0.59166  0.86119  0.16964
EC12   EC   0.59166  0.86119  0.83036
EC13   EC   0.90834  0.36119  0.16964
EC14   EC   0.90834  0.36119  0.83036
EC15   EC   0.90834  0.63881  0.33036
EC16   EC   0.90834  0.63881  0.66964
E1    E   0.00000  0.36119  0.25000
E2    E   0.00000  0.36119  0.75000
E3    E   0.00000  0.63881  0.25000
E4    E   0.00000  0.63881  0.75000
E5    E   0.05647  0.35996  0.13400
E6    E   0.05647  0.35996  0.86600
E7    E   0.05647  0.64004  0.36600
E8    E   0.05647  0.64004  0.63400
E9    E   0.14813  0.49878  0.13400
E10   E   0.14813  0.49878  0.86600
E11   E   0.14813  0.50122  0.36600
E12   E   0.14813  0.50122  0.63400
E13   E   0.19353  0.25122  0.36600
E14   E   0.19353  0.25122  0.63400
E15   E   0.19353  0.74878  0.13400
E16   E   0.19353  0.74878  0.86600
E17   E   0.20460  0.35874  0.00000
E18   E   0.20460  0.64126  0.50000
E19   E   0.29540  0.14126  0.50000
E20   E   0.29540  0.85874  0.00000
E21   E   0.30647  0.24878  0.13400
E22   E   0.30647  0.24878  0.86600
E23   E   0.30647  0.75122  0.36600
E24   E   0.30647  0.75122  0.63400
E25   E   0.35187  0.00122  0.36600
E26   E   0.35187  0.00122  0.63400
E27   E   0.35187  0.99878  0.13400
E28   E   0.35187  0.99878  0.86600
E29   E   0.44353  0.14004  0.36600
E30   E   0.44353  0.14004  0.63400
E31   E   0.44353  0.85996  0.13400
E32   E   0.44353  0.85996  0.86600
E33   E   0.50000  0.13881  0.25000
E34   E   0.50000  0.13881  0.75000
E35   E   0.50000  0.86119  0.25000
E36   E   0.50000  0.86119  0.75000
E37   E   0.55647  0.14004  0.13400
E38   E   0.55647  0.14004  0.86600
E39   E   0.55647  0.85996  0.36600
E40   E   0.55647  0.85996  0.63400
E41   E   0.64813  0.00122  0.13400
E42   E   0.64813  0.00122  0.86600
E43   E   0.64813  0.99878  0.36600
E44   E   0.64813  0.99878  0.63400
E45   E   0.69353  0.24878  0.36600
E46   E   0.69353  0.24878  0.63400
E47   E   0.69353  0.75122  0.13400
E48   E   0.69353  0.75122  0.86600
E49   E   0.70460  0.14126  0.00000
E50   E   0.70460  0.85874  0.50000
E51   E   0.79540  0.35874  0.50000
E52   E   0.79540  0.64126  0.00000
E53   E   0.80647  0.25122  0.13400
E54   E   0.80647  0.25122  0.86600
E55   E   0.80647  0.74878  0.36600
E56   E   0.80647  0.74878  0.63400
E57   E   0.85187  0.49878  0.36600
E58   E   0.85187  0.49878  0.63400
E59   E   0.85187  0.50122  0.13400
E60   E   0.85187  0.50122  0.86600
E61   E   0.94353  0.35996  0.36600
E62   E   0.94353  0.35996  0.63400
E63   E   0.94353  0.64004  0.13400
E64   E   0.94353  0.64004  0.86600
loop_
