data_bon_Im-3m  hall_number: 529, V_con: 8, EC_con: 8
_audit_creation_date              2025-03-06
_audit_creation_method            'MOFbuilder_1.0'
_symmetry_space_group_name_H-M    'P1'
_symmetry_Int_Tables_number       1
_symmetry_cell_setting            triclinic
loop_
_symmetry_equiv_pos_as_xyz
  x,y,z
_cell_length_a                    38.7596
_cell_length_b                    38.7596
_cell_length_c                    38.7596
_cell_angle_alpha                 90.0
_cell_angle_beta                  90.0
_cell_angle_gamma                 90.0
loop_
_atom_site_label
_atom_site_type_symbol
_atom_site_fract_x
_atom_site_fract_y
_atom_site_fract_z
V1    V   0.12863  0.12863  0.31131
V2    V   0.12863  0.12863  0.68869
V3    V   0.12863  0.31131  0.12863
V4    V   0.12863  0.31131  0.87137
V5    V   0.12863  0.68869  0.12863
V6    V   0.12863  0.68869  0.87137
V7    V   0.12863  0.87137  0.31131
V8    V   0.12863  0.87137  0.68869
V9    V   0.18869  0.37137  0.37137
V10   V   0.18869  0.37137  0.62863
V11   V   0.18869  0.62863  0.37137
V12   V   0.18869  0.62863  0.62863
V13   V   0.31131  0.12863  0.12863
V14   V   0.31131  0.12863  0.87137
V15   V   0.31131  0.87137  0.12863
V16   V   0.31131  0.87137  0.87137
V17   V   0.37137  0.18869  0.37137
V18   V   0.37137  0.18869  0.62863
V19   V   0.37137  0.37137  0.18869
V20   V   0.37137  0.37137  0.81131
V21   V   0.37137  0.62863  0.18869
V22   V   0.37137  0.62863  0.81131
V23   V   0.37137  0.81131  0.37137
V24   V   0.37137  0.81131  0.62863
V25   V   0.62863  0.18869  0.37137
V26   V   0.62863  0.18869  0.62863
V27   V   0.62863  0.37137  0.18869
V28   V   0.62863  0.37137  0.81131
V29   V   0.62863  0.62863  0.18869
V30   V   0.62863  0.62863  0.81131
V31   V   0.62863  0.81131  0.37137
V32   V   0.62863  0.81131  0.62863
V33   V   0.68869  0.12863  0.12863
V34   V   0.68869  0.12863  0.87137
V35   V   0.68869  0.87137  0.12863
V36   V   0.68869  0.87137  0.87137
V37   V   0.81131  0.37137  0.37137
V38   V   0.81131  0.37137  0.62863
V39   V   0.81131  0.62863  0.37137
V40   V   0.81131  0.62863  0.62863
V41   V   0.87137  0.12863  0.31131
V42   V   0.87137  0.12863  0.68869
V43   V   0.87137  0.31131  0.12863
V44   V   0.87137  0.31131  0.87137
V45   V   0.87137  0.68869  0.12863
V46   V   0.87137  0.68869  0.87137
V47   V   0.87137  0.87137  0.31131
V48   V   0.87137  0.87137  0.68869
EC1    EC   0.00000  0.25000  0.50000
EC2    EC   0.00000  0.50000  0.25000
EC3    EC   0.00000  0.50000  0.75000
EC4    EC   0.00000  0.75000  0.50000
EC5    EC   0.25000  0.00000  0.50000
EC6    EC   0.25000  0.50000  0.00000
EC7    EC   0.50000  0.00000  0.25000
EC8    EC   0.50000  0.00000  0.75000
EC9    EC   0.50000  0.25000  0.00000
EC10   EC   0.50000  0.75000  0.00000
EC11   EC   0.75000  0.00000  0.50000
EC12   EC   0.75000  0.50000  0.00000
E1    E   0.00000  0.12863  0.31131
E2    E   0.00000  0.12863  0.68869
E3    E   0.00000  0.31131  0.12863
E4    E   0.00000  0.31131  0.87137
E5    E   0.00000  0.68869  0.12863
E6    E   0.00000  0.68869  0.87137
E7    E   0.00000  0.87137  0.31131
E8    E   0.00000  0.87137  0.68869
E9    E   0.06431  0.18931  0.40566
E10   E   0.06431  0.18931  0.59434
E11   E   0.06431  0.40566  0.18931
E12   E   0.06431  0.40566  0.81069
E13   E   0.06431  0.59434  0.18931
E14   E   0.06431  0.59434  0.81069
E15   E   0.06431  0.81069  0.40566
E16   E   0.06431  0.81069  0.59434
E17   E   0.09434  0.31069  0.43569
E18   E   0.09434  0.31069  0.56431
E19   E   0.09434  0.43569  0.31069
E20   E   0.09434  0.43569  0.68931
E21   E   0.09434  0.56431  0.31069
E22   E   0.09434  0.56431  0.68931
E23   E   0.09434  0.68931  0.43569
E24   E   0.09434  0.68931  0.56431
E25   E   0.12863  0.00000  0.31131
E26   E   0.12863  0.00000  0.68869
E27   E   0.12863  0.21997  0.21997
E28   E   0.12863  0.21997  0.78003
E29   E   0.12863  0.31131  0.00000
E30   E   0.12863  0.68869  0.00000
E31   E   0.12863  0.78003  0.21997
E32   E   0.12863  0.78003  0.78003
E33   E   0.15866  0.25000  0.34134
E34   E   0.15866  0.25000  0.65866
E35   E   0.15866  0.34134  0.25000
E36   E   0.15866  0.34134  0.75000
E37   E   0.15866  0.65866  0.25000
E38   E   0.15866  0.65866  0.75000
E39   E   0.15866  0.75000  0.34134
E40   E   0.15866  0.75000  0.65866
E41   E   0.15866  0.25000  0.34134
E42   E   0.15866  0.25000  0.65866
E43   E   0.15866  0.34134  0.25000
E44   E   0.15866  0.34134  0.75000
E45   E   0.15866  0.65866  0.25000
E46   E   0.15866  0.65866  0.75000
E47   E   0.15866  0.75000  0.34134
E48   E   0.15866  0.75000  0.65866
E49   E   0.18869  0.37137  0.50000
E50   E   0.18869  0.50000  0.37137
E51   E   0.18869  0.50000  0.62863
E52   E   0.18869  0.62863  0.50000
E53   E   0.18931  0.06431  0.40566
E54   E   0.18931  0.06431  0.59434
E55   E   0.18931  0.40566  0.06431
E56   E   0.18931  0.40566  0.93569
E57   E   0.18931  0.59434  0.06431
E58   E   0.18931  0.59434  0.93569
E59   E   0.18931  0.93569  0.40566
E60   E   0.18931  0.93569  0.59434
E61   E   0.21997  0.12863  0.21997
E62   E   0.21997  0.12863  0.78003
E63   E   0.21997  0.21997  0.12863
E64   E   0.21997  0.21997  0.87137
E65   E   0.21997  0.78003  0.12863
E66   E   0.21997  0.78003  0.87137
E67   E   0.21997  0.87137  0.21997
E68   E   0.21997  0.87137  0.78003
E69   E   0.25000  0.15866  0.34134
E70   E   0.25000  0.15866  0.65866
E71   E   0.25000  0.15866  0.34134
E72   E   0.25000  0.15866  0.65866
E73   E   0.25000  0.34134  0.15866
E74   E   0.25000  0.34134  0.15866
E75   E   0.25000  0.34134  0.84134
E76   E   0.25000  0.65866  0.15866
E77   E   0.25000  0.65866  0.15866
E78   E   0.25000  0.65866  0.84134
E79   E   0.25000  0.84134  0.34134
E80   E   0.25000  0.84134  0.65866
E81   E   0.28003  0.28003  0.37137
E82   E   0.28003  0.28003  0.62863
E83   E   0.28003  0.37137  0.28003
E84   E   0.28003  0.37137  0.71997
E85   E   0.28003  0.62863  0.28003
E86   E   0.28003  0.62863  0.71997
E87   E   0.28003  0.71997  0.37137
E88   E   0.28003  0.71997  0.62863
E89   E   0.31069  0.09434  0.43569
E90   E   0.31069  0.09434  0.56431
E91   E   0.31069  0.43569  0.09434
E92   E   0.31069  0.43569  0.90566
E93   E   0.31069  0.56431  0.09434
E94   E   0.31069  0.56431  0.90566
E95   E   0.31069  0.90566  0.43569
E96   E   0.31069  0.90566  0.56431
E97   E   0.31131  0.00000  0.12863
E98   E   0.31131  0.00000  0.87137
E99   E   0.31131  0.12863  0.00000
E100  E   0.31131  0.87137  0.00000
E101  E   0.34134  0.15866  0.25000
E102  E   0.34134  0.15866  0.75000
E103  E   0.34134  0.15866  0.25000
E104  E   0.34134  0.15866  0.75000
E105  E   0.34134  0.25000  0.15866
E106  E   0.34134  0.25000  0.15866
E107  E   0.34134  0.25000  0.84134
E108  E   0.34134  0.75000  0.15866
E109  E   0.34134  0.75000  0.15866
E110  E   0.34134  0.75000  0.84134
E111  E   0.34134  0.84134  0.25000
E112  E   0.34134  0.84134  0.75000
E113  E   0.37137  0.18869  0.50000
E114  E   0.37137  0.28003  0.28003
E115  E   0.37137  0.28003  0.71997
E116  E   0.37137  0.50000  0.18869
E117  E   0.37137  0.50000  0.81131
E118  E   0.37137  0.71997  0.28003
E119  E   0.37137  0.71997  0.71997
E120  E   0.37137  0.81131  0.50000
E121  E   0.40566  0.06431  0.18931
E122  E   0.40566  0.06431  0.81069
E123  E   0.40566  0.18931  0.06431
E124  E   0.40566  0.18931  0.93569
E125  E   0.40566  0.81069  0.06431
E126  E   0.40566  0.81069  0.93569
E127  E   0.40566  0.93569  0.18931
E128  E   0.40566  0.93569  0.81069
E129  E   0.43569  0.09434  0.31069
E130  E   0.43569  0.09434  0.68931
E131  E   0.43569  0.31069  0.09434
E132  E   0.43569  0.31069  0.90566
E133  E   0.43569  0.68931  0.09434
E134  E   0.43569  0.68931  0.90566
E135  E   0.43569  0.90566  0.31069
E136  E   0.43569  0.90566  0.68931
E137  E   0.50000  0.18869  0.37137
E138  E   0.50000  0.18869  0.62863
E139  E   0.50000  0.37137  0.18869
E140  E   0.50000  0.37137  0.81131
E141  E   0.50000  0.62863  0.18869
E142  E   0.50000  0.62863  0.81131
E143  E   0.50000  0.81131  0.37137
E144  E   0.50000  0.81131  0.62863
E145  E   0.56431  0.09434  0.31069
E146  E   0.56431  0.09434  0.68931
E147  E   0.56431  0.31069  0.09434
E148  E   0.56431  0.31069  0.90566
E149  E   0.56431  0.68931  0.09434
E150  E   0.56431  0.68931  0.90566
E151  E   0.56431  0.90566  0.31069
E152  E   0.56431  0.90566  0.68931
E153  E   0.59434  0.06431  0.18931
E154  E   0.59434  0.06431  0.81069
E155  E   0.59434  0.18931  0.06431
E156  E   0.59434  0.18931  0.93569
E157  E   0.59434  0.81069  0.06431
E158  E   0.59434  0.81069  0.93569
E159  E   0.59434  0.93569  0.18931
E160  E   0.59434  0.93569  0.81069
E161  E   0.62863  0.18869  0.50000
E162  E   0.62863  0.28003  0.28003
E163  E   0.62863  0.28003  0.71997
E164  E   0.62863  0.50000  0.18869
E165  E   0.62863  0.50000  0.81131
E166  E   0.62863  0.71997  0.28003
E167  E   0.62863  0.71997  0.71997
E168  E   0.62863  0.81131  0.50000
E169  E   0.65866  0.15866  0.25000
E170  E   0.65866  0.15866  0.75000
E171  E   0.65866  0.15866  0.25000
E172  E   0.65866  0.15866  0.75000
E173  E   0.65866  0.25000  0.15866
E174  E   0.65866  0.25000  0.15866
E175  E   0.65866  0.25000  0.84134
E176  E   0.65866  0.75000  0.15866
E177  E   0.65866  0.75000  0.15866
E178  E   0.65866  0.75000  0.84134
E179  E   0.65866  0.84134  0.25000
E180  E   0.65866  0.84134  0.75000
E181  E   0.68869  0.00000  0.12863
E182  E   0.68869  0.00000  0.87137
E183  E   0.68869  0.12863  0.00000
E184  E   0.68869  0.87137  0.00000
E185  E   0.68931  0.09434  0.43569
E186  E   0.68931  0.09434  0.56431
E187  E   0.68931  0.43569  0.09434
E188  E   0.68931  0.43569  0.90566
E189  E   0.68931  0.56431  0.09434
E190  E   0.68931  0.56431  0.90566
E191  E   0.68931  0.90566  0.43569
E192  E   0.68931  0.90566  0.56431
E193  E   0.71997  0.28003  0.37137
E194  E   0.71997  0.28003  0.62863
E195  E   0.71997  0.37137  0.28003
E196  E   0.71997  0.37137  0.71997
E197  E   0.71997  0.62863  0.28003
E198  E   0.71997  0.62863  0.71997
E199  E   0.71997  0.71997  0.37137
E200  E   0.71997  0.71997  0.62863
E201  E   0.75000  0.15866  0.34134
E202  E   0.75000  0.15866  0.65866
E203  E   0.75000  0.15866  0.34134
E204  E   0.75000  0.15866  0.65866
E205  E   0.75000  0.34134  0.15866
E206  E   0.75000  0.34134  0.15866
E207  E   0.75000  0.34134  0.84134
E208  E   0.75000  0.65866  0.15866
E209  E   0.75000  0.65866  0.15866
E210  E   0.75000  0.65866  0.84134
E211  E   0.75000  0.84134  0.34134
E212  E   0.75000  0.84134  0.65866
E213  E   0.78003  0.12863  0.21997
E214  E   0.78003  0.12863  0.78003
E215  E   0.78003  0.21997  0.12863
E216  E   0.78003  0.21997  0.87137
E217  E   0.78003  0.78003  0.12863
E218  E   0.78003  0.78003  0.87137
E219  E   0.78003  0.87137  0.21997
E220  E   0.78003  0.87137  0.78003
E221  E   0.81069  0.06431  0.40566
E222  E   0.81069  0.06431  0.59434
E223  E   0.81069  0.40566  0.06431
E224  E   0.81069  0.40566  0.93569
E225  E   0.81069  0.59434  0.06431
E226  E   0.81069  0.59434  0.93569
E227  E   0.81069  0.93569  0.40566
E228  E   0.81069  0.93569  0.59434
E229  E   0.81131  0.37137  0.50000
E230  E   0.81131  0.50000  0.37137
E231  E   0.81131  0.50000  0.62863
E232  E   0.81131  0.62863  0.50000
E233  E   0.84134  0.25000  0.34134
E234  E   0.84134  0.25000  0.65866
E235  E   0.84134  0.34134  0.25000
E236  E   0.84134  0.34134  0.75000
E237  E   0.84134  0.65866  0.25000
E238  E   0.84134  0.65866  0.75000
E239  E   0.84134  0.75000  0.34134
E240  E   0.84134  0.75000  0.65866
E241  E   0.87137  0.00000  0.31131
E242  E   0.87137  0.00000  0.68869
E243  E   0.87137  0.21997  0.21997
E244  E   0.87137  0.21997  0.78003
E245  E   0.87137  0.31131  0.00000
E246  E   0.87137  0.68869  0.00000
E247  E   0.87137  0.78003  0.21997
E248  E   0.87137  0.78003  0.78003
E249  E   0.90566  0.31069  0.43569
E250  E   0.90566  0.31069  0.56431
E251  E   0.90566  0.43569  0.31069
E252  E   0.90566  0.43569  0.68931
E253  E   0.90566  0.56431  0.31069
E254  E   0.90566  0.56431  0.68931
E255  E   0.90566  0.68931  0.43569
E256  E   0.90566  0.68931  0.56431
E257  E   0.93569  0.18931  0.40566
E258  E   0.93569  0.18931  0.59434
E259  E   0.93569  0.40566  0.18931
E260  E   0.93569  0.40566  0.81069
E261  E   0.93569  0.59434  0.18931
E262  E   0.93569  0.59434  0.81069
E263  E   0.93569  0.81069  0.40566
E264  E   0.93569  0.81069  0.59434
loop_
