data_bpc_Cmcm  hall_number: 298, V_con: 3, EC_con: 3
_audit_creation_date              2025-03-06
_audit_creation_method            'MOFbuilder_1.0'
_symmetry_space_group_name_H-M    'P1'
_symmetry_Int_Tables_number       1
_symmetry_cell_setting            triclinic
loop_
_symmetry_equiv_pos_as_xyz
  x,y,z
_cell_length_a                    18.8594
_cell_length_b                    56.630700000000004
_cell_length_c                    35.5179
_cell_angle_alpha                 90.0
_cell_angle_beta                  90.0
_cell_angle_gamma                 90.0
loop_
_atom_site_label
_atom_site_type_symbol
_atom_site_fract_x
_atom_site_fract_y
_atom_site_fract_z
V1    V   0.00000  0.27790  0.01514
V2    V   0.00000  0.27790  0.48486
V3    V   0.00000  0.72210  0.51514
V4    V   0.00000  0.72210  0.98486
V5    V   0.50000  0.22210  0.51514
V6    V   0.50000  0.22210  0.98486
V7    V   0.50000  0.77790  0.01514
V8    V   0.50000  0.77790  0.48486
EC1    EC   0.00000  0.44423  0.10919
EC2    EC   0.00000  0.44423  0.39081
EC3    EC   0.00000  0.55577  0.60919
EC4    EC   0.00000  0.55577  0.89081
EC5    EC   0.50000  0.05577  0.60919
EC6    EC   0.50000  0.05577  0.89081
EC7    EC   0.50000  0.94423  0.10919
EC8    EC   0.50000  0.94423  0.39081
E1    E   0.00000  0.36107  0.06216
E2    E   0.00000  0.36107  0.43784
E3    E   0.00000  0.44423  0.25000
E4    E   0.00000  0.50000  0.00000
E5    E   0.00000  0.50000  0.50000
E6    E   0.00000  0.55577  0.75000
E7    E   0.00000  0.63893  0.56216
E8    E   0.00000  0.63893  0.93784
E9    E   0.25000  0.25000  0.00000
E10   E   0.25000  0.25000  0.50000
E11   E   0.25000  0.75000  0.00000
E12   E   0.25000  0.75000  0.50000
E13   E   0.50000  0.00000  0.00000
E14   E   0.50000  0.00000  0.50000
E15   E   0.50000  0.05577  0.75000
E16   E   0.50000  0.13893  0.56216
E17   E   0.50000  0.13893  0.93784
E18   E   0.50000  0.86107  0.06216
E19   E   0.50000  0.86107  0.43784
E20   E   0.50000  0.94423  0.25000
E21   E   0.75000  0.25000  0.00000
E22   E   0.75000  0.25000  0.50000
E23   E   0.75000  0.75000  0.00000
E24   E   0.75000  0.75000  0.50000
loop_
