data_bpj_P42/mmc  hall_number: 412, V_con: 3, EC_con: 3
_audit_creation_date              2025-03-06
_audit_creation_method            'MOFbuilder_1.0'
_symmetry_space_group_name_H-M    'P1'
_symmetry_Int_Tables_number       1
_symmetry_cell_setting            triclinic
loop_
_symmetry_equiv_pos_as_xyz
  x,y,z
_cell_length_a                    45.0732
_cell_length_b                    45.0732
_cell_length_c                    17.5459
_cell_angle_alpha                 90.0
_cell_angle_beta                  90.0
_cell_angle_gamma                 90.0
loop_
_atom_site_label
_atom_site_type_symbol
_atom_site_fract_x
_atom_site_fract_y
_atom_site_fract_z
V1    V   0.26798  0.34325  0.50000
V2    V   0.26798  0.65675  0.50000
V3    V   0.34325  0.26798  0.00000
V4    V   0.34325  0.73202  0.00000
V5    V   0.65675  0.26798  0.00000
V6    V   0.65675  0.73202  0.00000
V7    V   0.73202  0.34325  0.50000
V8    V   0.73202  0.65675  0.50000
EC1    EC   0.11099  0.50000  0.50000
EC2    EC   0.50000  0.11099  0.00000
EC3    EC   0.50000  0.88901  0.00000
EC4    EC   0.88901  0.50000  0.50000
E1    E   0.00000  0.50000  0.50000
E2    E   0.18948  0.42163  0.50000
E3    E   0.18948  0.57837  0.50000
E4    E   0.30562  0.30562  0.25000
E5    E   0.30562  0.30562  0.75000
E6    E   0.30562  0.69438  0.25000
E7    E   0.30562  0.69438  0.75000
E8    E   0.42163  0.18948  0.00000
E9    E   0.42163  0.81052  0.00000
E10   E   0.50000  0.00000  0.00000
E11   E   0.57837  0.18948  0.00000
E12   E   0.57837  0.81052  0.00000
E13   E   0.69438  0.30562  0.25000
E14   E   0.69438  0.30562  0.75000
E15   E   0.69438  0.69438  0.25000
E16   E   0.69438  0.69438  0.75000
E17   E   0.81052  0.42163  0.50000
E18   E   0.81052  0.57837  0.50000
loop_
