data_bpo_Pcca  hall_number: 257, V_con: 3, EC_con: 3
_audit_creation_date              2025-03-06
_audit_creation_method            'MOFbuilder_1.0'
_symmetry_space_group_name_H-M    'P1'
_symmetry_Int_Tables_number       1
_symmetry_cell_setting            triclinic
loop_
_symmetry_equiv_pos_as_xyz
  x,y,z
_cell_length_a                    36.6742
_cell_length_b                    27.5118
_cell_length_c                    35.2669
_cell_angle_alpha                 90.0
_cell_angle_beta                  90.0
_cell_angle_gamma                 90.0
loop_
_atom_site_label
_atom_site_type_symbol
_atom_site_fract_x
_atom_site_fract_y
_atom_site_fract_z
V1    V   0.01845  0.11296  0.10947
V2    V   0.01845  0.88704  0.60947
V3    V   0.48155  0.11296  0.60947
V4    V   0.48155  0.88704  0.10947
V5    V   0.51845  0.11296  0.89053
V6    V   0.51845  0.88704  0.39053
V7    V   0.98155  0.11296  0.39053
V8    V   0.98155  0.88704  0.89053
EC1    EC   0.12263  0.43496  0.03533
EC2    EC   0.12263  0.56504  0.53533
EC3    EC   0.37737  0.43496  0.53533
EC4    EC   0.37737  0.56504  0.03533
EC5    EC   0.62263  0.43496  0.96467
EC6    EC   0.62263  0.56504  0.46467
EC7    EC   0.87737  0.43496  0.46467
EC8    EC   0.87737  0.56504  0.96467
E1    E   0.00000  0.00000  0.00000
E2    E   0.00000  0.00000  0.50000
E3    E   0.00000  0.11296  0.25000
E4    E   0.00000  0.50000  0.00000
E5    E   0.00000  0.50000  0.50000
E6    E   0.00000  0.88704  0.75000
E7    E   0.07054  0.27396  0.07240
E8    E   0.07054  0.72604  0.57240
E9    E   0.25000  0.50000  0.03533
E10   E   0.25000  0.50000  0.53533
E11   E   0.42946  0.27396  0.57240
E12   E   0.42946  0.72604  0.07240
E13   E   0.50000  0.00000  0.00000
E14   E   0.50000  0.00000  0.50000
E15   E   0.50000  0.11296  0.75000
E16   E   0.50000  0.50000  0.00000
E17   E   0.50000  0.50000  0.50000
E18   E   0.50000  0.88704  0.25000
E19   E   0.57054  0.27396  0.92760
E20   E   0.57054  0.72604  0.42760
E21   E   0.75000  0.50000  0.46467
E22   E   0.75000  0.50000  0.96467
E23   E   0.92946  0.27396  0.42760
E24   E   0.92946  0.72604  0.92760
loop_
