data_bpu_Pm-3n  hall_number: 520, V_con: 3, EC_con: 3
_audit_creation_date              2025-03-06
_audit_creation_method            'MOFbuilder_1.0'
_symmetry_space_group_name_H-M    'P1'
_symmetry_Int_Tables_number       1
_symmetry_cell_setting            triclinic
loop_
_symmetry_equiv_pos_as_xyz
  x,y,z
_cell_length_a                    56.466
_cell_length_b                    56.466
_cell_length_c                    56.466
_cell_angle_alpha                 90.0
_cell_angle_beta                  90.0
_cell_angle_gamma                 90.0
loop_
_atom_site_label
_atom_site_type_symbol
_atom_site_fract_x
_atom_site_fract_y
_atom_site_fract_z
V1    V   0.00000  0.08854  0.33792
V2    V   0.00000  0.08854  0.66208
V3    V   0.00000  0.91146  0.33792
V4    V   0.00000  0.91146  0.66208
V5    V   0.08854  0.33792  0.00000
V6    V   0.08854  0.66208  0.00000
V7    V   0.16208  0.41146  0.50000
V8    V   0.16208  0.58854  0.50000
V9    V   0.33792  0.00000  0.08854
V10   V   0.33792  0.00000  0.91146
V11   V   0.41146  0.50000  0.16208
V12   V   0.41146  0.50000  0.83792
V13   V   0.50000  0.16208  0.41146
V14   V   0.50000  0.16208  0.58854
V15   V   0.50000  0.83792  0.41146
V16   V   0.50000  0.83792  0.58854
V17   V   0.58854  0.50000  0.16208
V18   V   0.58854  0.50000  0.83792
V19   V   0.66208  0.00000  0.08854
V20   V   0.66208  0.00000  0.91146
V21   V   0.83792  0.41146  0.50000
V22   V   0.83792  0.58854  0.50000
V23   V   0.91146  0.33792  0.00000
V24   V   0.91146  0.66208  0.00000
EC1    EC   0.16143  0.16154  0.33814
EC2    EC   0.16143  0.16154  0.66186
EC3    EC   0.16143  0.83846  0.33814
EC4    EC   0.16143  0.83846  0.66186
EC5    EC   0.16154  0.33814  0.16143
EC6    EC   0.16154  0.33814  0.83857
EC7    EC   0.16154  0.66186  0.16143
EC8    EC   0.16154  0.66186  0.83857
EC9    EC   0.16186  0.33846  0.33857
EC10   EC   0.16186  0.33846  0.66143
EC11   EC   0.16186  0.66154  0.33857
EC12   EC   0.16186  0.66154  0.66143
EC13   EC   0.33814  0.16143  0.16154
EC14   EC   0.33814  0.16143  0.83846
EC15   EC   0.33814  0.83857  0.16154
EC16   EC   0.33814  0.83857  0.83846
EC17   EC   0.33846  0.33857  0.16186
EC18   EC   0.33846  0.33857  0.83814
EC19   EC   0.33846  0.66143  0.16186
EC20   EC   0.33846  0.66143  0.83814
EC21   EC   0.33857  0.16186  0.33846
EC22   EC   0.33857  0.16186  0.66154
EC23   EC   0.33857  0.83814  0.33846
EC24   EC   0.33857  0.83814  0.66154
EC25   EC   0.66143  0.16186  0.33846
EC26   EC   0.66143  0.16186  0.66154
EC27   EC   0.66143  0.83814  0.33846
EC28   EC   0.66143  0.83814  0.66154
EC29   EC   0.66154  0.33857  0.16186
EC30   EC   0.66154  0.33857  0.83814
EC31   EC   0.66154  0.66143  0.16186
EC32   EC   0.66154  0.66143  0.83814
EC33   EC   0.66186  0.16143  0.16154
EC34   EC   0.66186  0.16143  0.83846
EC35   EC   0.66186  0.83857  0.16154
EC36   EC   0.66186  0.83857  0.83846
EC37   EC   0.83814  0.33846  0.33857
EC38   EC   0.83814  0.33846  0.66143
EC39   EC   0.83814  0.66154  0.33857
EC40   EC   0.83814  0.66154  0.66143
EC41   EC   0.83846  0.33814  0.16143
EC42   EC   0.83846  0.33814  0.83857
EC43   EC   0.83846  0.66186  0.16143
EC44   EC   0.83846  0.66186  0.83857
EC45   EC   0.83857  0.16154  0.33814
EC46   EC   0.83857  0.16154  0.66186
EC47   EC   0.83857  0.83846  0.33814
EC48   EC   0.83857  0.83846  0.66186
E1    E   0.00000  0.00000  0.33792
E2    E   0.00000  0.00000  0.66208
E3    E   0.00000  0.33792  0.00000
E4    E   0.00000  0.66208  0.00000
E5    E   0.08072  0.12504  0.33803
E6    E   0.08072  0.12504  0.66197
E7    E   0.08072  0.87496  0.33803
E8    E   0.08072  0.87496  0.66197
E9    E   0.12504  0.33803  0.08072
E10   E   0.12504  0.33803  0.91928
E11   E   0.12504  0.66197  0.08072
E12   E   0.12504  0.66197  0.91928
E13   E   0.16164  0.25000  0.33836
E14   E   0.16164  0.25000  0.66164
E15   E   0.16164  0.75000  0.33836
E16   E   0.16164  0.75000  0.66164
E17   E   0.16170  0.33830  0.25000
E18   E   0.16170  0.33830  0.75000
E19   E   0.16170  0.66170  0.25000
E20   E   0.16170  0.66170  0.75000
E21   E   0.16197  0.37496  0.41928
E22   E   0.16197  0.37496  0.58072
E23   E   0.16197  0.62504  0.41928
E24   E   0.16197  0.62504  0.58072
E25   E   0.16208  0.50000  0.50000
E26   E   0.25000  0.16170  0.33830
E27   E   0.25000  0.16170  0.66170
E28   E   0.25000  0.33836  0.16164
E29   E   0.25000  0.33836  0.83836
E30   E   0.25000  0.66164  0.16164
E31   E   0.25000  0.66164  0.83836
E32   E   0.25000  0.83830  0.33830
E33   E   0.25000  0.83830  0.66170
E34   E   0.33792  0.00000  0.00000
E35   E   0.33803  0.08072  0.12504
E36   E   0.33803  0.08072  0.87496
E37   E   0.33803  0.91928  0.12504
E38   E   0.33803  0.91928  0.87496
E39   E   0.33830  0.25000  0.16170
E40   E   0.33830  0.25000  0.83830
E41   E   0.33830  0.75000  0.16170
E42   E   0.33830  0.75000  0.83830
E43   E   0.33836  0.16164  0.25000
E44   E   0.33836  0.16164  0.75000
E45   E   0.33836  0.83836  0.25000
E46   E   0.33836  0.83836  0.75000
E47   E   0.37496  0.41928  0.16197
E48   E   0.37496  0.41928  0.83803
E49   E   0.37496  0.58072  0.16197
E50   E   0.37496  0.58072  0.83803
E51   E   0.41928  0.16197  0.37496
E52   E   0.41928  0.16197  0.62504
E53   E   0.41928  0.83803  0.37496
E54   E   0.41928  0.83803  0.62504
E55   E   0.50000  0.16208  0.50000
E56   E   0.50000  0.50000  0.16208
E57   E   0.50000  0.50000  0.83792
E58   E   0.50000  0.83792  0.50000
E59   E   0.58072  0.16197  0.37496
E60   E   0.58072  0.16197  0.62504
E61   E   0.58072  0.83803  0.37496
E62   E   0.58072  0.83803  0.62504
E63   E   0.62504  0.41928  0.16197
E64   E   0.62504  0.41928  0.83803
E65   E   0.62504  0.58072  0.16197
E66   E   0.62504  0.58072  0.83803
E67   E   0.66164  0.16164  0.25000
E68   E   0.66164  0.16164  0.75000
E69   E   0.66164  0.83836  0.25000
E70   E   0.66164  0.83836  0.75000
E71   E   0.66170  0.25000  0.16170
E72   E   0.66170  0.25000  0.83830
E73   E   0.66170  0.75000  0.16170
E74   E   0.66170  0.75000  0.83830
E75   E   0.66197  0.08072  0.12504
E76   E   0.66197  0.08072  0.87496
E77   E   0.66197  0.91928  0.12504
E78   E   0.66197  0.91928  0.87496
E79   E   0.66208  0.00000  0.00000
E80   E   0.75000  0.16170  0.33830
E81   E   0.75000  0.16170  0.66170
E82   E   0.75000  0.33836  0.16164
E83   E   0.75000  0.33836  0.83836
E84   E   0.75000  0.66164  0.16164
E85   E   0.75000  0.66164  0.83836
E86   E   0.75000  0.83830  0.33830
E87   E   0.75000  0.83830  0.66170
E88   E   0.83792  0.50000  0.50000
E89   E   0.83803  0.37496  0.41928
E90   E   0.83803  0.37496  0.58072
E91   E   0.83803  0.62504  0.41928
E92   E   0.83803  0.62504  0.58072
E93   E   0.83830  0.33830  0.25000
E94   E   0.83830  0.33830  0.75000
E95   E   0.83830  0.66170  0.25000
E96   E   0.83830  0.66170  0.75000
E97   E   0.83836  0.25000  0.33836
E98   E   0.83836  0.25000  0.66164
E99   E   0.83836  0.75000  0.33836
E100  E   0.83836  0.75000  0.66164
E101  E   0.87496  0.33803  0.08072
E102  E   0.87496  0.33803  0.91928
E103  E   0.87496  0.66197  0.08072
E104  E   0.87496  0.66197  0.91928
E105  E   0.91928  0.12504  0.33803
E106  E   0.91928  0.12504  0.66197
E107  E   0.91928  0.87496  0.33803
E108  E   0.91928  0.87496  0.66197
loop_
