data_bpv_Cmcm  hall_number: 298, V_con: 3, EC_con: 3
_audit_creation_date              2025-03-06
_audit_creation_method            'MOFbuilder_1.0'
_symmetry_space_group_name_H-M    'P1'
_symmetry_Int_Tables_number       1
_symmetry_cell_setting            triclinic
loop_
_symmetry_equiv_pos_as_xyz
  x,y,z
_cell_length_a                    53.6524
_cell_length_b                    34.2699
_cell_length_c                    39.625499999999995
_cell_angle_alpha                 90.0
_cell_angle_beta                  90.0
_cell_angle_gamma                 90.0
loop_
_atom_site_label
_atom_site_type_symbol
_atom_site_fract_x
_atom_site_fract_y
_atom_site_fract_z
V1    V   0.20367  0.13550  0.54676
V2    V   0.20367  0.13550  0.95324
V3    V   0.20367  0.86450  0.04676
V4    V   0.20367  0.86450  0.45324
V5    V   0.29633  0.36450  0.04676
V6    V   0.29633  0.36450  0.45324
V7    V   0.29633  0.63550  0.54676
V8    V   0.29633  0.63550  0.95324
V9    V   0.70367  0.36450  0.04676
V10   V   0.70367  0.36450  0.45324
V11   V   0.70367  0.63550  0.54676
V12   V   0.70367  0.63550  0.95324
V13   V   0.79633  0.13550  0.54676
V14   V   0.79633  0.13550  0.95324
V15   V   0.79633  0.86450  0.04676
V16   V   0.79633  0.86450  0.45324
EC1    EC   0.09321  0.13551  0.75000
EC2    EC   0.09321  0.86449  0.25000
EC3    EC   0.40679  0.36449  0.25000
EC4    EC   0.40679  0.63551  0.75000
EC5    EC   0.59321  0.36449  0.25000
EC6    EC   0.59321  0.63551  0.75000
EC7    EC   0.90679  0.13551  0.75000
EC8    EC   0.90679  0.86449  0.25000
E1    E   0.00000  0.13551  0.75000
E2    E   0.00000  0.86449  0.25000
E3    E   0.14844  0.13550  0.64838
E4    E   0.14844  0.13550  0.85162
E5    E   0.14844  0.86450  0.14838
E6    E   0.14844  0.86450  0.35162
E7    E   0.20367  0.00000  0.00000
E8    E   0.20367  0.00000  0.50000
E9    E   0.25000  0.25000  0.00000
E10   E   0.25000  0.25000  0.50000
E11   E   0.25000  0.75000  0.00000
E12   E   0.25000  0.75000  0.50000
E13   E   0.29633  0.50000  0.00000
E14   E   0.29633  0.50000  0.50000
E15   E   0.35156  0.36450  0.14838
E16   E   0.35156  0.36450  0.35162
E17   E   0.35156  0.63550  0.64838
E18   E   0.35156  0.63550  0.85162
E19   E   0.50000  0.36449  0.25000
E20   E   0.50000  0.63551  0.75000
E21   E   0.64844  0.36450  0.14838
E22   E   0.64844  0.36450  0.35162
E23   E   0.64844  0.63550  0.64838
E24   E   0.64844  0.63550  0.85162
E25   E   0.70367  0.50000  0.00000
E26   E   0.70367  0.50000  0.50000
E27   E   0.75000  0.25000  0.00000
E28   E   0.75000  0.25000  0.50000
E29   E   0.75000  0.75000  0.00000
E30   E   0.75000  0.75000  0.50000
E31   E   0.79633  0.00000  0.00000
E32   E   0.79633  0.00000  0.50000
E33   E   0.85156  0.13550  0.64838
E34   E   0.85156  0.13550  0.85162
E35   E   0.85156  0.86450  0.14838
E36   E   0.85156  0.86450  0.35162
loop_
