data_bto-e_P6222  hall_number: 474, V_con: 4, EC_con: 4
_audit_creation_date              2025-03-06
_audit_creation_method            'MOFbuilder_1.0'
_symmetry_space_group_name_H-M    'P1'
_symmetry_Int_Tables_number       1
_symmetry_cell_setting            triclinic
loop_
_symmetry_equiv_pos_as_xyz
  x,y,z
_cell_length_a                    20.0
_cell_length_b                    20.0
_cell_length_c                    51.9614
_cell_angle_alpha                 90.0
_cell_angle_beta                  90.0
_cell_angle_gamma                 120.0
loop_
_atom_site_label
_atom_site_type_symbol
_atom_site_fract_x
_atom_site_fract_y
_atom_site_fract_z
V1    V   0.00000  0.50000  0.16666
V2    V   0.00000  0.50000  0.16667
V3    V   0.50000  0.00000  0.50000
V4    V   0.50000  0.00000  0.50000
V5    V   0.50000  0.50000  0.83333
V6    V   0.50000  0.50000  0.83334
EC1    EC   0.24966  0.49932  0.00000
EC2    EC   0.24966  0.75034  0.33333
EC3    EC   0.49932  0.24966  0.66667
EC4    EC   0.50068  0.75034  0.66667
EC5    EC   0.75034  0.24966  0.33333
EC6    EC   0.75034  0.50068  0.00000
E1    E   0.00000  0.50000  0.00000
E2    E   0.00000  0.50000  0.33333
E3    E   0.12483  0.49966  0.08333
E4    E   0.12483  0.62517  0.25000
E5    E   0.37483  0.49966  0.91667
E6    E   0.37483  0.87517  0.41666
E7    E   0.49966  0.12483  0.58334
E8    E   0.49966  0.37483  0.75000
E9    E   0.50000  0.00000  0.33333
E10   E   0.50000  0.00000  0.66667
E11   E   0.50000  0.50000  0.00000
E12   E   0.50000  0.50000  0.66667
E13   E   0.50034  0.62517  0.75000
E14   E   0.50034  0.87517  0.58334
E15   E   0.62517  0.12483  0.41666
E16   E   0.62517  0.50034  0.91667
E17   E   0.87517  0.37483  0.25000
E18   E   0.87517  0.50034  0.08333
loop_
