data_cab-a_Pm-3m  hall_number: 517, V_con: 5, EC_con: 4
_audit_creation_date              2025-03-06
_audit_creation_method            'MOFbuilder_1.0'
_symmetry_space_group_name_H-M    'P1'
_symmetry_Int_Tables_number       1
_symmetry_cell_setting            triclinic
loop_
_symmetry_equiv_pos_as_xyz
  x,y,z
_cell_length_a                    52.426199999999994
_cell_length_b                    52.426199999999994
_cell_length_c                    52.426199999999994
_cell_angle_alpha                 90.0
_cell_angle_beta                  90.0
_cell_angle_gamma                 90.0
loop_
_atom_site_label
_atom_site_type_symbol
_atom_site_fract_x
_atom_site_fract_y
_atom_site_fract_z
V1    V   0.00000  0.00000  0.40463
V2    V   0.00000  0.00000  0.59537
V3    V   0.00000  0.40463  0.00000
V4    V   0.00000  0.59537  0.00000
V5    V   0.40463  0.00000  0.00000
V6    V   0.59537  0.00000  0.00000
EC1    EC   0.00000  0.13488  0.26975
EC2    EC   0.00000  0.13488  0.73025
EC3    EC   0.00000  0.26975  0.13488
EC4    EC   0.00000  0.26975  0.86512
EC5    EC   0.00000  0.73025  0.13488
EC6    EC   0.00000  0.73025  0.86512
EC7    EC   0.00000  0.86512  0.26975
EC8    EC   0.00000  0.86512  0.73025
EC9    EC   0.13488  0.00000  0.26975
EC10   EC   0.13488  0.00000  0.73025
EC11   EC   0.13488  0.26975  0.00000
EC12   EC   0.13488  0.73025  0.00000
EC13   EC   0.26975  0.00000  0.13488
EC14   EC   0.26975  0.00000  0.86512
EC15   EC   0.26975  0.13488  0.00000
EC16   EC   0.26975  0.86512  0.00000
EC17   EC   0.73025  0.00000  0.13488
EC18   EC   0.73025  0.00000  0.86512
EC19   EC   0.73025  0.13488  0.00000
EC20   EC   0.73025  0.86512  0.00000
EC21   EC   0.86512  0.00000  0.26975
EC22   EC   0.86512  0.00000  0.73025
EC23   EC   0.86512  0.26975  0.00000
EC24   EC   0.86512  0.73025  0.00000
E1    E   0.00000  0.00000  0.50000
E2    E   0.00000  0.06744  0.33719
E3    E   0.00000  0.06744  0.66281
E4    E   0.00000  0.20231  0.20231
E5    E   0.00000  0.20231  0.79769
E6    E   0.00000  0.33719  0.06744
E7    E   0.00000  0.33719  0.93256
E8    E   0.00000  0.50000  0.00000
E9    E   0.00000  0.66281  0.06744
E10   E   0.00000  0.66281  0.93256
E11   E   0.00000  0.79769  0.20231
E12   E   0.00000  0.79769  0.79769
E13   E   0.00000  0.93256  0.33719
E14   E   0.00000  0.93256  0.66281
E15   E   0.06744  0.00000  0.33719
E16   E   0.06744  0.00000  0.66281
E17   E   0.06744  0.06744  0.26975
E18   E   0.06744  0.06744  0.73025
E19   E   0.06744  0.26975  0.06744
E20   E   0.06744  0.26975  0.93256
E21   E   0.06744  0.33719  0.00000
E22   E   0.06744  0.66281  0.00000
E23   E   0.06744  0.73025  0.06744
E24   E   0.06744  0.73025  0.93256
E25   E   0.06744  0.93256  0.26975
E26   E   0.06744  0.93256  0.73025
E27   E   0.20231  0.00000  0.20231
E28   E   0.20231  0.00000  0.79769
E29   E   0.20231  0.20231  0.00000
E30   E   0.20231  0.79769  0.00000
E31   E   0.26975  0.06744  0.06744
E32   E   0.26975  0.06744  0.93256
E33   E   0.26975  0.93256  0.06744
E34   E   0.26975  0.93256  0.93256
E35   E   0.33719  0.00000  0.06744
E36   E   0.33719  0.00000  0.93256
E37   E   0.33719  0.06744  0.00000
E38   E   0.33719  0.93256  0.00000
E39   E   0.50000  0.00000  0.00000
E40   E   0.66281  0.00000  0.06744
E41   E   0.66281  0.00000  0.93256
E42   E   0.66281  0.06744  0.00000
E43   E   0.66281  0.93256  0.00000
E44   E   0.73025  0.06744  0.06744
E45   E   0.73025  0.06744  0.93256
E46   E   0.73025  0.93256  0.06744
E47   E   0.73025  0.93256  0.93256
E48   E   0.79769  0.00000  0.20231
E49   E   0.79769  0.00000  0.79769
E50   E   0.79769  0.20231  0.00000
E51   E   0.79769  0.79769  0.00000
E52   E   0.93256  0.00000  0.33719
E53   E   0.93256  0.00000  0.66281
E54   E   0.93256  0.06744  0.26975
E55   E   0.93256  0.06744  0.73025
E56   E   0.93256  0.26975  0.06744
E57   E   0.93256  0.26975  0.93256
E58   E   0.93256  0.33719  0.00000
E59   E   0.93256  0.66281  0.00000
E60   E   0.93256  0.73025  0.06744
E61   E   0.93256  0.73025  0.93256
E62   E   0.93256  0.93256  0.26975
E63   E   0.93256  0.93256  0.73025
loop_
