data_cbo-e_Pa-3  hall_number: 501, V_con: 6, EC_con: 6
_audit_creation_date              2025-03-06
_audit_creation_method            'MOFbuilder_1.0'
_symmetry_space_group_name_H-M    'P1'
_symmetry_Int_Tables_number       1
_symmetry_cell_setting            triclinic
loop_
_symmetry_equiv_pos_as_xyz
  x,y,z
_cell_length_a                    39.567899999999995
_cell_length_b                    39.567899999999995
_cell_length_c                    39.567899999999995
_cell_angle_alpha                 90.0
_cell_angle_beta                  90.0
_cell_angle_gamma                 90.0
loop_
_atom_site_label
_atom_site_type_symbol
_atom_site_fract_x
_atom_site_fract_y
_atom_site_fract_z
V1    V   0.05779  0.73690  0.32157
V2    V   0.05779  0.76310  0.82157
V3    V   0.17843  0.55779  0.73690
V4    V   0.17843  0.94221  0.23690
V5    V   0.23690  0.17843  0.94221
V6    V   0.23690  0.32157  0.44221
V7    V   0.26310  0.67843  0.94221
V8    V   0.26310  0.82157  0.44221
V9    V   0.32157  0.05779  0.73690
V10   V   0.32157  0.44221  0.23690
V11   V   0.44221  0.23690  0.32157
V12   V   0.44221  0.26310  0.82157
V13   V   0.55779  0.73690  0.17843
V14   V   0.55779  0.76310  0.67843
V15   V   0.67843  0.55779  0.76310
V16   V   0.67843  0.94221  0.26310
V17   V   0.73690  0.17843  0.55779
V18   V   0.73690  0.32157  0.05779
V19   V   0.76310  0.67843  0.55779
V20   V   0.76310  0.82157  0.05779
V21   V   0.82157  0.05779  0.76310
V22   V   0.82157  0.44221  0.26310
V23   V   0.94221  0.23690  0.17843
V24   V   0.94221  0.26310  0.67843
EC1    EC   0.07293  0.71887  0.57320
EC2    EC   0.07293  0.78113  0.07320
EC3    EC   0.07320  0.07293  0.78113
EC4    EC   0.07320  0.42707  0.28113
EC5    EC   0.21887  0.57320  0.42707
EC6    EC   0.21887  0.92680  0.92707
EC7    EC   0.28113  0.07320  0.42707
EC8    EC   0.28113  0.42680  0.92707
EC9    EC   0.42680  0.57293  0.78113
EC10   EC   0.42680  0.92707  0.28113
EC11   EC   0.42707  0.21887  0.57320
EC12   EC   0.42707  0.28113  0.07320
EC13   EC   0.57293  0.71887  0.92680
EC14   EC   0.57293  0.78113  0.42680
EC15   EC   0.57320  0.07293  0.71887
EC16   EC   0.57320  0.42707  0.21887
EC17   EC   0.71887  0.57320  0.07293
EC18   EC   0.71887  0.92680  0.57293
EC19   EC   0.78113  0.07320  0.07293
EC20   EC   0.78113  0.42680  0.57293
EC21   EC   0.92680  0.57293  0.71887
EC22   EC   0.92680  0.92707  0.21887
EC23   EC   0.92707  0.21887  0.92680
EC24   EC   0.92707  0.28113  0.42680
E1    E   0.00014  0.14590  0.85396
E2    E   0.00014  0.35410  0.35396
E3    E   0.00770  0.16801  0.72978
E4    E   0.00770  0.33199  0.22978
E5    E   0.05261  0.56536  0.72789
E6    E   0.05261  0.93464  0.22789
E7    E   0.06536  0.72789  0.44739
E8    E   0.06536  0.74098  0.69739
E9    E   0.06536  0.75902  0.19739
E10   E   0.06536  0.77211  0.94739
E11   E   0.11811  0.66045  0.77924
E12   E   0.11811  0.83955  0.27924
E13   E   0.12568  0.63833  0.65505
E14   E   0.12568  0.86167  0.15505
E15   E   0.13833  0.65505  0.37432
E16   E   0.13833  0.84495  0.87432
E17   E   0.14590  0.64604  0.50014
E18   E   0.14590  0.85396  0.00014
E19   E   0.14604  0.50014  0.35410
E20   E   0.14604  0.99986  0.85410
E21   E   0.15505  0.12568  0.86167
E22   E   0.15505  0.37432  0.36167
E23   E   0.16045  0.72076  0.88189
E24   E   0.16045  0.77924  0.38189
E25   E   0.16801  0.72978  0.00770
E26   E   0.16801  0.77022  0.50770
E27   E   0.19739  0.06536  0.75902
E28   E   0.19739  0.43464  0.25902
E29   E   0.22076  0.61811  0.83955
E30   E   0.22076  0.88189  0.33955
E31   E   0.22789  0.05261  0.93464
E32   E   0.22789  0.44739  0.43464
E33   E   0.22978  0.00770  0.33199
E34   E   0.22978  0.49230  0.83199
E35   E   0.24098  0.69739  0.43464
E36   E   0.24098  0.80261  0.93464
E37   E   0.25902  0.19739  0.43464
E38   E   0.25902  0.30261  0.93464
E39   E   0.27022  0.50770  0.33199
E40   E   0.27022  0.99230  0.83199
E41   E   0.27211  0.55261  0.93464
E42   E   0.27211  0.94739  0.43464
E43   E   0.27924  0.11811  0.83955
E44   E   0.27924  0.38189  0.33955
E45   E   0.30261  0.56536  0.75902
E46   E   0.30261  0.93464  0.25902
E47   E   0.33199  0.22978  0.00770
E48   E   0.33199  0.27022  0.50770
E49   E   0.33955  0.22076  0.88189
E50   E   0.33955  0.27924  0.38189
E51   E   0.34495  0.62568  0.86167
E52   E   0.34495  0.87432  0.36167
E53   E   0.35396  0.00014  0.35410
E54   E   0.35396  0.49986  0.85410
E55   E   0.35410  0.14604  0.50014
E56   E   0.35410  0.35396  0.00014
E57   E   0.36167  0.15505  0.37432
E58   E   0.36167  0.34495  0.87432
E59   E   0.37432  0.13833  0.65505
E60   E   0.37432  0.36167  0.15505
E61   E   0.38189  0.16045  0.77924
E62   E   0.38189  0.33955  0.27924
E63   E   0.43464  0.22789  0.44739
E64   E   0.43464  0.24098  0.69739
E65   E   0.43464  0.25902  0.19739
E66   E   0.43464  0.27211  0.94739
E67   E   0.44739  0.06536  0.72789
E68   E   0.44739  0.43464  0.22789
E69   E   0.49230  0.66801  0.72978
E70   E   0.49230  0.83199  0.22978
E71   E   0.49986  0.64590  0.85396
E72   E   0.49986  0.85410  0.35396
E73   E   0.50014  0.14590  0.64604
E74   E   0.50014  0.35410  0.14604
E75   E   0.50770  0.16801  0.77022
E76   E   0.50770  0.33199  0.27022
E77   E   0.55261  0.56536  0.77211
E78   E   0.55261  0.93464  0.27211
E79   E   0.56536  0.72789  0.05261
E80   E   0.56536  0.74098  0.80261
E81   E   0.56536  0.75902  0.30261
E82   E   0.56536  0.77211  0.55261
E83   E   0.61811  0.66045  0.72076
E84   E   0.61811  0.83955  0.22076
E85   E   0.62568  0.63833  0.84495
E86   E   0.62568  0.86167  0.34495
E87   E   0.63833  0.65505  0.12568
E88   E   0.63833  0.84495  0.62568
E89   E   0.64590  0.64604  0.99986
E90   E   0.64590  0.85396  0.49986
E91   E   0.64604  0.50014  0.14590
E92   E   0.64604  0.99986  0.64590
E93   E   0.65505  0.12568  0.63833
E94   E   0.65505  0.37432  0.13833
E95   E   0.66045  0.72076  0.61811
E96   E   0.66045  0.77924  0.11811
E97   E   0.66801  0.72978  0.49230
E98   E   0.66801  0.77022  0.99230
E99   E   0.69739  0.06536  0.74098
E100  E   0.69739  0.43464  0.24098
E101  E   0.72076  0.61811  0.66045
E102  E   0.72076  0.88189  0.16045
E103  E   0.72789  0.05261  0.56536
E104  E   0.72789  0.44739  0.06536
E105  E   0.72978  0.00770  0.16801
E106  E   0.72978  0.49230  0.66801
E107  E   0.74098  0.69739  0.06536
E108  E   0.74098  0.80261  0.56536
E109  E   0.75902  0.19739  0.06536
E110  E   0.75902  0.30261  0.56536
E111  E   0.77022  0.50770  0.16801
E112  E   0.77022  0.99230  0.66801
E113  E   0.77211  0.55261  0.56536
E114  E   0.77211  0.94739  0.06536
E115  E   0.77924  0.11811  0.66045
E116  E   0.77924  0.38189  0.16045
E117  E   0.80261  0.56536  0.74098
E118  E   0.80261  0.93464  0.24098
E119  E   0.83199  0.22978  0.49230
E120  E   0.83199  0.27022  0.99230
E121  E   0.83955  0.22076  0.61811
E122  E   0.83955  0.27924  0.11811
E123  E   0.84495  0.62568  0.63833
E124  E   0.84495  0.87432  0.13833
E125  E   0.85396  0.00014  0.14590
E126  E   0.85396  0.49986  0.64590
E127  E   0.85410  0.14604  0.99986
E128  E   0.85410  0.35396  0.49986
E129  E   0.86167  0.15505  0.12568
E130  E   0.86167  0.34495  0.62568
E131  E   0.87432  0.13833  0.84495
E132  E   0.87432  0.36167  0.34495
E133  E   0.88189  0.16045  0.72076
E134  E   0.88189  0.33955  0.22076
E135  E   0.93464  0.22789  0.05261
E136  E   0.93464  0.24098  0.80261
E137  E   0.93464  0.25902  0.30261
E138  E   0.93464  0.27211  0.55261
E139  E   0.94739  0.06536  0.77211
E140  E   0.94739  0.43464  0.27211
E141  E   0.99230  0.66801  0.77022
E142  E   0.99230  0.83199  0.27022
E143  E   0.99986  0.64590  0.64604
E144  E   0.99986  0.85410  0.14604
loop_
