data_cbo_Pa-3  hall_number: 501, V_con: 4
_audit_creation_date              2025-03-06
_audit_creation_method            'MOFbuilder_1.0'
_symmetry_space_group_name_H-M    'P1'
_symmetry_Int_Tables_number       1
_symmetry_cell_setting            triclinic
loop_
_symmetry_equiv_pos_as_xyz
  x,y,z
_cell_length_a                    35.333600000000004
_cell_length_b                    35.333600000000004
_cell_length_c                    35.333600000000004
_cell_angle_alpha                 90.0
_cell_angle_beta                  90.0
_cell_angle_gamma                 90.0
loop_
_atom_site_label
_atom_site_type_symbol
_atom_site_fract_x
_atom_site_fract_y
_atom_site_fract_z
V1    V   0.10442  0.17078  0.32930
V2    V   0.10442  0.32922  0.82930
V3    V   0.17070  0.60442  0.17078
V4    V   0.17070  0.89558  0.67078
V5    V   0.17078  0.17070  0.60442
V6    V   0.17078  0.32930  0.10442
V7    V   0.32922  0.67070  0.60442
V8    V   0.32922  0.82930  0.10442
V9    V   0.32930  0.10442  0.17078
V10   V   0.32930  0.39558  0.67078
V11   V   0.39558  0.67078  0.32930
V12   V   0.39558  0.82922  0.82930
V13   V   0.60442  0.17078  0.17070
V14   V   0.60442  0.32922  0.67070
V15   V   0.67070  0.60442  0.32922
V16   V   0.67070  0.89558  0.82922
V17   V   0.67078  0.17070  0.89558
V18   V   0.67078  0.32930  0.39558
V19   V   0.82922  0.67070  0.89558
V20   V   0.82922  0.82930  0.39558
V21   V   0.82930  0.10442  0.32922
V22   V   0.82930  0.39558  0.82922
V23   V   0.89558  0.67078  0.17070
V24   V   0.89558  0.82922  0.67070
E1    E   0.03314  0.63760  0.17074
E2    E   0.03314  0.86240  0.67074
E3    E   0.13760  0.17074  0.46686
E4    E   0.13760  0.24996  0.71686
E5    E   0.13760  0.25004  0.21686
E6    E   0.13760  0.32926  0.96686
E7    E   0.17074  0.03314  0.63760
E8    E   0.17074  0.46686  0.13760
E9    E   0.21686  0.13760  0.25004
E10   E   0.21686  0.36240  0.75004
E11   E   0.24996  0.71686  0.13760
E12   E   0.24996  0.78314  0.63760
E13   E   0.25004  0.21686  0.13760
E14   E   0.25004  0.28314  0.63760
E15   E   0.28314  0.63760  0.25004
E16   E   0.28314  0.86240  0.75004
E17   E   0.32926  0.53314  0.63760
E18   E   0.32926  0.96686  0.13760
E19   E   0.36240  0.67074  0.46686
E20   E   0.36240  0.74996  0.71686
E21   E   0.36240  0.75004  0.21686
E22   E   0.36240  0.82926  0.96686
E23   E   0.46686  0.13760  0.17074
E24   E   0.46686  0.36240  0.67074
E25   E   0.53314  0.63760  0.32926
E26   E   0.53314  0.86240  0.82926
E27   E   0.63760  0.17074  0.03314
E28   E   0.63760  0.24996  0.78314
E29   E   0.63760  0.25004  0.28314
E30   E   0.63760  0.32926  0.53314
E31   E   0.67074  0.03314  0.86240
E32   E   0.67074  0.46686  0.36240
E33   E   0.71686  0.13760  0.24996
E34   E   0.71686  0.36240  0.74996
E35   E   0.74996  0.71686  0.36240
E36   E   0.74996  0.78314  0.86240
E37   E   0.75004  0.21686  0.36240
E38   E   0.75004  0.28314  0.86240
E39   E   0.78314  0.63760  0.24996
E40   E   0.78314  0.86240  0.74996
E41   E   0.82926  0.53314  0.86240
E42   E   0.82926  0.96686  0.36240
E43   E   0.86240  0.67074  0.03314
E44   E   0.86240  0.74996  0.78314
E45   E   0.86240  0.75004  0.28314
E46   E   0.86240  0.82926  0.53314
E47   E   0.96686  0.13760  0.32926
E48   E   0.96686  0.36240  0.82926
loop_
