data_cbt_I-42d  hall_number: 399, V_con: 4, EC_con: 4
_audit_creation_date              2025-03-06
_audit_creation_method            'MOFbuilder_1.0'
_symmetry_space_group_name_H-M    'P1'
_symmetry_Int_Tables_number       1
_symmetry_cell_setting            triclinic
loop_
_symmetry_equiv_pos_as_xyz
  x,y,z
_cell_length_a                    46.0858
_cell_length_b                    46.0858
_cell_length_c                    21.997300000000003
_cell_angle_alpha                 90.0
_cell_angle_beta                  90.0
_cell_angle_gamma                 90.0
loop_
_atom_site_label
_atom_site_type_symbol
_atom_site_fract_x
_atom_site_fract_y
_atom_site_fract_z
V1    V   0.00924  0.25000  0.12500
V2    V   0.25000  0.50924  0.37500
V3    V   0.25000  0.99076  0.87500
V4    V   0.49076  0.25000  0.62500
V5    V   0.50924  0.75000  0.62500
V6    V   0.75000  0.00924  0.87500
V7    V   0.75000  0.49076  0.37500
V8    V   0.99076  0.75000  0.12500
EC1    EC   0.14433  0.69716  0.42649
EC2    EC   0.14433  0.80284  0.82351
EC3    EC   0.19716  0.14433  0.17649
EC4    EC   0.19716  0.35567  0.07351
EC5    EC   0.30284  0.14433  0.57351
EC6    EC   0.30284  0.35567  0.67649
EC7    EC   0.35567  0.69716  0.32351
EC8    EC   0.35567  0.80284  0.92649
EC9    EC   0.64433  0.19716  0.92649
EC10   EC   0.64433  0.30284  0.32351
EC11   EC   0.69716  0.64433  0.67649
EC12   EC   0.69716  0.85567  0.57351
EC13   EC   0.80284  0.64433  0.07351
EC14   EC   0.80284  0.85567  0.17649
EC15   EC   0.85567  0.19716  0.82351
EC16   EC   0.85567  0.30284  0.42649
E1    E   0.06754  0.72358  0.27574
E2    E   0.06754  0.77642  0.97426
E3    E   0.10320  0.19716  0.15074
E4    E   0.10320  0.30284  0.09926
E5    E   0.14433  0.75000  0.62500
E6    E   0.19716  0.25000  0.12500
E7    E   0.19716  0.60320  0.40074
E8    E   0.19716  0.89680  0.84926
E9    E   0.22358  0.06754  0.02574
E10   E   0.22358  0.43246  0.22426
E11   E   0.25000  0.14433  0.37500
E12   E   0.25000  0.35567  0.87500
E13   E   0.25000  0.69716  0.37500
E14   E   0.25000  0.80284  0.87500
E15   E   0.27642  0.06754  0.72426
E16   E   0.27642  0.43246  0.52574
E17   E   0.30284  0.25000  0.62500
E18   E   0.30284  0.60320  0.34926
E19   E   0.30284  0.89680  0.90074
E20   E   0.35567  0.75000  0.12500
E21   E   0.39680  0.19716  0.59926
E22   E   0.39680  0.30284  0.65074
E23   E   0.43246  0.72358  0.47426
E24   E   0.43246  0.77642  0.77574
E25   E   0.56754  0.22358  0.77574
E26   E   0.56754  0.27642  0.47426
E27   E   0.60320  0.69716  0.65074
E28   E   0.60320  0.80284  0.59926
E29   E   0.64433  0.25000  0.12500
E30   E   0.69716  0.10320  0.90074
E31   E   0.69716  0.39680  0.34926
E32   E   0.69716  0.75000  0.62500
E33   E   0.72358  0.56754  0.52574
E34   E   0.72358  0.93246  0.72426
E35   E   0.75000  0.19716  0.87500
E36   E   0.75000  0.30284  0.37500
E37   E   0.75000  0.64433  0.87500
E38   E   0.75000  0.85567  0.37500
E39   E   0.77642  0.56754  0.22426
E40   E   0.77642  0.93246  0.02574
E41   E   0.80284  0.10320  0.84926
E42   E   0.80284  0.39680  0.40074
E43   E   0.80284  0.75000  0.12500
E44   E   0.85567  0.25000  0.62500
E45   E   0.89680  0.69716  0.09926
E46   E   0.89680  0.80284  0.15074
E47   E   0.93246  0.22358  0.97426
E48   E   0.93246  0.27642  0.27574
loop_
