data_cdp_P42/ncm:2  hall_number: 423, V_con: 4, EC_con: 4
_audit_creation_date              2025-03-06
_audit_creation_method            'MOFbuilder_1.0'
_symmetry_space_group_name_H-M    'P1'
_symmetry_Int_Tables_number       1
_symmetry_cell_setting            triclinic
loop_
_symmetry_equiv_pos_as_xyz
  x,y,z
_cell_length_a                    21.988
_cell_length_b                    21.988
_cell_length_c                    39.2217
_cell_angle_alpha                 90.0
_cell_angle_beta                  90.0
_cell_angle_gamma                 90.0
loop_
_atom_site_label
_atom_site_type_symbol
_atom_site_fract_x
_atom_site_fract_y
_atom_site_fract_z
V1    V   0.25000  0.75000  0.25000
V2    V   0.25000  0.75000  0.75000
V3    V   0.75000  0.25000  0.25000
V4    V   0.75000  0.25000  0.75000
EC1    EC   0.08921  0.08921  0.39394
EC2    EC   0.08921  0.41079  0.89394
EC3    EC   0.41079  0.08921  0.89394
EC4    EC   0.41079  0.41079  0.39394
EC5    EC   0.58921  0.58921  0.60606
EC6    EC   0.58921  0.91079  0.10606
EC7    EC   0.91079  0.58921  0.10606
EC8    EC   0.91079  0.91079  0.60606
E1    E   0.00000  0.00000  0.50000
E2    E   0.00000  0.50000  0.00000
E3    E   0.08040  0.66960  0.17803
E4    E   0.08040  0.83040  0.67803
E5    E   0.16960  0.58040  0.82197
E6    E   0.16960  0.91960  0.32197
E7    E   0.25000  0.25000  0.39394
E8    E   0.25000  0.25000  0.89394
E9    E   0.33040  0.58040  0.32197
E10   E   0.33040  0.91960  0.82197
E11   E   0.41960  0.66960  0.67803
E12   E   0.41960  0.83040  0.17803
E13   E   0.50000  0.00000  0.00000
E14   E   0.50000  0.50000  0.50000
E15   E   0.58040  0.16960  0.82197
E16   E   0.58040  0.33040  0.32197
E17   E   0.66960  0.08040  0.17803
E18   E   0.66960  0.41960  0.67803
E19   E   0.75000  0.75000  0.10606
E20   E   0.75000  0.75000  0.60606
E21   E   0.83040  0.08040  0.67803
E22   E   0.83040  0.41960  0.17803
E23   E   0.91960  0.16960  0.32197
E24   E   0.91960  0.33040  0.82197
loop_
