data_cml_Cmc21  hall_number: 176, V_con: 6, EC_con: 3
_audit_creation_date              2025-03-06
_audit_creation_method            'MOFbuilder_1.0'
_symmetry_space_group_name_H-M    'P1'
_symmetry_Int_Tables_number       1
_symmetry_cell_setting            triclinic
loop_
_symmetry_equiv_pos_as_xyz
  x,y,z
_cell_length_a                    23.548000000000002
_cell_length_b                    27.8805
_cell_length_c                    25.2285
_cell_angle_alpha                 90.0
_cell_angle_beta                  90.0
_cell_angle_gamma                 90.0
loop_
_atom_site_label
_atom_site_type_symbol
_atom_site_fract_x
_atom_site_fract_y
_atom_site_fract_z
V1    V   0.00000  0.14358  0.85001
V2    V   0.00000  0.85642  0.35001
V3    V   0.50000  0.35642  0.35001
V4    V   0.50000  0.64358  0.85001
EC1    EC   0.19931  0.14258  0.50000
EC2    EC   0.19931  0.85742  0.00000
EC3    EC   0.30069  0.35742  0.00000
EC4    EC   0.30069  0.64258  0.50000
EC5    EC   0.69931  0.35742  0.00000
EC6    EC   0.69931  0.64258  0.50000
EC7    EC   0.80069  0.14258  0.50000
EC8    EC   0.80069  0.85742  0.00000
E1    E   0.09966  0.00050  0.92500
E2    E   0.09966  0.14308  0.67500
E3    E   0.09966  0.85692  0.17500
E4    E   0.09966  0.99950  0.42500
E5    E   0.15034  0.25050  0.92500
E6    E   0.15034  0.74950  0.42500
E7    E   0.34966  0.24950  0.42500
E8    E   0.34966  0.75050  0.92500
E9    E   0.40034  0.35692  0.17500
E10   E   0.40034  0.49950  0.42500
E11   E   0.40034  0.50050  0.92500
E12   E   0.40034  0.64308  0.67500
E13   E   0.59966  0.35692  0.17500
E14   E   0.59966  0.49950  0.42500
E15   E   0.59966  0.50050  0.92500
E16   E   0.59966  0.64308  0.67500
E17   E   0.65034  0.24950  0.42500
E18   E   0.65034  0.75050  0.92500
E19   E   0.84966  0.25050  0.92500
E20   E   0.84966  0.74950  0.42500
E21   E   0.90034  0.00050  0.92500
E22   E   0.90034  0.14308  0.67500
E23   E   0.90034  0.85692  0.17500
E24   E   0.90034  0.99950  0.42500
loop_
