data_cor-e_R-3c:H  hall_number: 167, V_con: 7, EC_con: 7
_audit_creation_date              2025-03-06
_audit_creation_method            'MOFbuilder_1.0'
_symmetry_space_group_name_H-M    'P1'
_symmetry_Int_Tables_number       1
_symmetry_cell_setting            triclinic
loop_
_symmetry_equiv_pos_as_xyz
  x,y,z
_cell_length_a                    32.7402
_cell_length_b                    32.7402
_cell_length_c                    83.63149999999999
_cell_angle_alpha                 90.0
_cell_angle_beta                  90.0
_cell_angle_gamma                 120.0
loop_
_atom_site_label
_atom_site_type_symbol
_atom_site_fract_x
_atom_site_fract_y
_atom_site_fract_z
V1    V   0.15953  0.18935  0.19107
V2    V   0.15953  0.31065  0.69107
V3    V   0.65953  0.68935  0.30893
V4    V   0.65953  0.81065  0.80893
EC1    EC   0.18935  0.02982  0.09344
EC2    EC   0.18935  0.47018  0.59344
EC3    EC   0.68935  0.52982  0.40656
EC4    EC   0.68935  0.97018  0.90656
E1    E   0.07976  0.09468  0.09344
E2    E   0.07976  0.40532  0.59344
E3    E   0.09468  0.01491  0.19107
E4    E   0.09468  0.48509  0.69107
E5    E   0.10958  0.56486  0.64226
E6    E   0.10958  0.93514  0.14226
E7    E   0.17444  0.10959  0.14226
E8    E   0.17444  0.17444  0.25000
E9    E   0.17444  0.32556  0.75000
E10   E   0.17444  0.39041  0.64226
E11   E   0.27625  0.55708  0.58333
E12   E   0.27625  0.94292  0.08333
E13   E   0.33333  0.10181  0.05893
E14   E   0.33333  0.39819  0.55893
E15   E   0.34824  0.08690  0.11785
E16   E   0.34824  0.41310  0.61785
E17   E   0.57976  0.59468  0.40656
E18   E   0.57976  0.90532  0.90656
E19   E   0.59468  0.51491  0.30893
E20   E   0.59468  0.98509  0.80893
E21   E   0.60958  0.06486  0.85774
E22   E   0.60958  0.43514  0.35774
E23   E   0.67444  0.60959  0.35774
E24   E   0.67444  0.67444  0.25000
E25   E   0.67444  0.82556  0.75000
E26   E   0.67444  0.89041  0.85774
E27   E   0.77625  0.05708  0.91667
E28   E   0.77625  0.44292  0.41667
E29   E   0.83333  0.60181  0.44107
E30   E   0.83333  0.89819  0.94107
E31   E   0.84824  0.58690  0.38215
E32   E   0.84824  0.91310  0.88215
loop_
