data_crt_I4132  hall_number: 510, V_con: 4
_audit_creation_date              2025-03-06
_audit_creation_method            'MOFbuilder_1.0'
_symmetry_space_group_name_H-M    'P1'
_symmetry_Int_Tables_number       1
_symmetry_cell_setting            triclinic
loop_
_symmetry_equiv_pos_as_xyz
  x,y,z
_cell_length_a                    42.0174
_cell_length_b                    42.0174
_cell_length_c                    42.0174
_cell_angle_alpha                 90.0
_cell_angle_beta                  90.0
_cell_angle_gamma                 90.0
loop_
_atom_site_label
_atom_site_type_symbol
_atom_site_fract_x
_atom_site_fract_y
_atom_site_fract_z
V1    V   0.04185  0.16921  0.29895
V2    V   0.04185  0.83079  0.20105
V3    V   0.04895  0.41921  0.20815
V4    V   0.04895  0.58079  0.29185
V5    V   0.08079  0.20815  0.95105
V6    V   0.08079  0.79185  0.54895
V7    V   0.16921  0.29895  0.04185
V8    V   0.16921  0.70105  0.45815
V9    V   0.20105  0.04185  0.83079
V10   V   0.20105  0.95815  0.66921
V11   V   0.20815  0.04895  0.41921
V12   V   0.20815  0.95105  0.08079
V13   V   0.29185  0.04895  0.58079
V14   V   0.29185  0.95105  0.91921
V15   V   0.29895  0.04185  0.16921
V16   V   0.29895  0.95815  0.33079
V17   V   0.33079  0.29895  0.95815
V18   V   0.33079  0.70105  0.54185
V19   V   0.41921  0.20815  0.04895
V20   V   0.41921  0.79185  0.45105
V21   V   0.45105  0.41921  0.79185
V22   V   0.45105  0.58079  0.70815
V23   V   0.45815  0.16921  0.70105
V24   V   0.45815  0.83079  0.79895
V25   V   0.54185  0.33079  0.70105
V26   V   0.54185  0.66921  0.79895
V27   V   0.54895  0.08079  0.79185
V28   V   0.54895  0.91921  0.70815
V29   V   0.58079  0.29185  0.04895
V30   V   0.58079  0.70815  0.45105
V31   V   0.66921  0.20105  0.95815
V32   V   0.66921  0.79895  0.54185
V33   V   0.70105  0.45815  0.16921
V34   V   0.70105  0.54185  0.33079
V35   V   0.70815  0.45105  0.58079
V36   V   0.70815  0.54895  0.91921
V37   V   0.79185  0.45105  0.41921
V38   V   0.79185  0.54895  0.08079
V39   V   0.79895  0.45815  0.83079
V40   V   0.79895  0.54185  0.66921
V41   V   0.83079  0.20105  0.04185
V42   V   0.83079  0.79895  0.45815
V43   V   0.91921  0.29185  0.95105
V44   V   0.91921  0.70815  0.54895
V45   V   0.95105  0.08079  0.20815
V46   V   0.95105  0.91921  0.29185
V47   V   0.95815  0.33079  0.29895
V48   V   0.95815  0.66921  0.20105
E1    E   0.00000  0.25000  0.29895
E2    E   0.00000  0.25000  0.95105
E3    E   0.00000  0.75000  0.20105
E4    E   0.00000  0.75000  0.54895
E5    E   0.00355  0.45579  0.29540
E6    E   0.00355  0.54421  0.20460
E7    E   0.04421  0.29540  0.99645
E8    E   0.04421  0.70460  0.50355
E9    E   0.04540  0.29421  0.25355
E10   E   0.04540  0.70579  0.24645
E11   E   0.04895  0.50000  0.25000
E12   E   0.10908  0.35908  0.12500
E13   E   0.10908  0.64092  0.37500
E14   E   0.10908  0.35908  0.12500
E15   E   0.10908  0.64092  0.37500
E16   E   0.12500  0.10908  0.35908
E17   E   0.12500  0.10908  0.35908
E18   E   0.12500  0.89092  0.14092
E19   E   0.12500  0.89092  0.14092
E20   E   0.14092  0.12500  0.89092
E21   E   0.14092  0.12500  0.89092
E22   E   0.14092  0.87500  0.60908
E23   E   0.14092  0.87500  0.60908
E24   E   0.20105  0.00000  0.75000
E25   E   0.20460  0.00355  0.54421
E26   E   0.20460  0.99645  0.95579
E27   E   0.20579  0.25355  0.95460
E28   E   0.20579  0.74645  0.54540
E29   E   0.24645  0.04540  0.70579
E30   E   0.24645  0.95460  0.79421
E31   E   0.25000  0.04895  0.50000
E32   E   0.25000  0.29895  0.00000
E33   E   0.25000  0.70105  0.50000
E34   E   0.25000  0.95105  0.00000
E35   E   0.25355  0.04540  0.29421
E36   E   0.25355  0.95460  0.20579
E37   E   0.29421  0.25355  0.04540
E38   E   0.29421  0.74645  0.45460
E39   E   0.29540  0.00355  0.45579
E40   E   0.29540  0.99645  0.04421
E41   E   0.29895  0.00000  0.25000
E42   E   0.35908  0.12500  0.10908
E43   E   0.35908  0.12500  0.10908
E44   E   0.35908  0.87500  0.39092
E45   E   0.37500  0.10908  0.64092
E46   E   0.37500  0.10908  0.64092
E47   E   0.37500  0.89092  0.85908
E48   E   0.37500  0.89092  0.85908
E49   E   0.39092  0.35908  0.87500
E50   E   0.39092  0.64092  0.62500
E51   E   0.39092  0.64092  0.62500
E52   E   0.45105  0.50000  0.75000
E53   E   0.45460  0.29421  0.74645
E54   E   0.45460  0.70579  0.75355
E55   E   0.45579  0.29540  0.00355
E56   E   0.45579  0.70460  0.49645
E57   E   0.49645  0.45579  0.70460
E58   E   0.49645  0.54421  0.79540
E59   E   0.50000  0.25000  0.04895
E60   E   0.50000  0.25000  0.70105
E61   E   0.50000  0.75000  0.45105
E62   E   0.50000  0.75000  0.79895
E63   E   0.50355  0.04421  0.70460
E64   E   0.50355  0.95579  0.79540
E65   E   0.54421  0.20460  0.00355
E66   E   0.54421  0.79540  0.49645
E67   E   0.54540  0.20579  0.74645
E68   E   0.54540  0.79421  0.75355
E69   E   0.54895  0.00000  0.75000
E70   E   0.60908  0.14092  0.87500
E71   E   0.60908  0.85908  0.62500
E72   E   0.60908  0.14092  0.87500
E73   E   0.60908  0.85908  0.62500
E74   E   0.62500  0.39092  0.64092
E75   E   0.62500  0.39092  0.64092
E76   E   0.62500  0.60908  0.85908
E77   E   0.62500  0.60908  0.85908
E78   E   0.64092  0.37500  0.10908
E79   E   0.64092  0.62500  0.39092
E80   E   0.64092  0.37500  0.10908
E81   E   0.64092  0.62500  0.39092
E82   E   0.70105  0.50000  0.25000
E83   E   0.70460  0.49645  0.45579
E84   E   0.70460  0.50355  0.04421
E85   E   0.70579  0.24645  0.04540
E86   E   0.70579  0.75355  0.45460
E87   E   0.74645  0.45460  0.29421
E88   E   0.74645  0.54540  0.20579
E89   E   0.75000  0.20105  0.00000
E90   E   0.75000  0.45105  0.50000
E91   E   0.75000  0.54895  0.00000
E92   E   0.75000  0.79895  0.50000
E93   E   0.75355  0.45460  0.70579
E94   E   0.75355  0.54540  0.79421
E95   E   0.79421  0.24645  0.95460
E96   E   0.79421  0.75355  0.54540
E97   E   0.79540  0.49645  0.54421
E98   E   0.79540  0.50355  0.95579
E99   E   0.79895  0.50000  0.75000
E100  E   0.85908  0.37500  0.89092
E101  E   0.85908  0.62500  0.60908
E102  E   0.85908  0.37500  0.89092
E103  E   0.85908  0.62500  0.60908
E104  E   0.87500  0.39092  0.35908
E105  E   0.87500  0.60908  0.14092
E106  E   0.87500  0.60908  0.14092
E107  E   0.89092  0.14092  0.12500
E108  E   0.89092  0.85908  0.37500
E109  E   0.89092  0.14092  0.12500
E110  E   0.89092  0.85908  0.37500
E111  E   0.95105  0.00000  0.25000
E112  E   0.95460  0.20579  0.25355
E113  E   0.95460  0.79421  0.24645
E114  E   0.95579  0.20460  0.99645
E115  E   0.95579  0.79540  0.50355
E116  E   0.99645  0.04421  0.29540
E117  E   0.99645  0.95579  0.20460
loop_
