data_csq-a_P6/mmm  hall_number: 485, V_con: 4, EC_con: 3
_audit_creation_date              2025-03-06
_audit_creation_method            'MOFbuilder_1.0'
_symmetry_space_group_name_H-M    'P1'
_symmetry_Int_Tables_number       1
_symmetry_cell_setting            triclinic
loop_
_symmetry_equiv_pos_as_xyz
  x,y,z
_cell_length_a                    80.73549999999999
_cell_length_b                    80.73549999999999
_cell_length_c                    30.9932
_cell_angle_alpha                 90.0
_cell_angle_beta                  90.0
_cell_angle_gamma                 120.0
loop_
_atom_site_label
_atom_site_type_symbol
_atom_site_fract_x
_atom_site_fract_y
_atom_site_fract_z
V1    V   0.07151  0.47382  0.33867
V2    V   0.07151  0.47382  0.66133
V3    V   0.07151  0.59769  0.33867
V4    V   0.07151  0.59769  0.66133
V5    V   0.40231  0.47382  0.33867
V6    V   0.40231  0.47382  0.66133
V7    V   0.40231  0.92849  0.33867
V8    V   0.40231  0.92849  0.66133
V9    V   0.47382  0.07151  0.33867
V10   V   0.47382  0.07151  0.66133
V11   V   0.47382  0.40231  0.33867
V12   V   0.47382  0.40231  0.66133
V13   V   0.52618  0.59769  0.33867
V14   V   0.52618  0.59769  0.66133
V15   V   0.52618  0.92849  0.33867
V16   V   0.52618  0.92849  0.66133
V17   V   0.59769  0.07151  0.33867
V18   V   0.59769  0.07151  0.66133
V19   V   0.59769  0.52618  0.33867
V20   V   0.59769  0.52618  0.66133
V21   V   0.92849  0.40231  0.33867
V22   V   0.92849  0.40231  0.66133
V23   V   0.92849  0.52618  0.33867
V24   V   0.92849  0.52618  0.66133
EC1    EC   0.17465  0.47315  0.16133
EC2    EC   0.17465  0.47315  0.83867
EC3    EC   0.17465  0.70150  0.16133
EC4    EC   0.17465  0.70150  0.83867
EC5    EC   0.29850  0.47315  0.16133
EC6    EC   0.29850  0.47315  0.83867
EC7    EC   0.29850  0.82535  0.16133
EC8    EC   0.29850  0.82535  0.83867
EC9    EC   0.47315  0.17465  0.16133
EC10   EC   0.47315  0.17465  0.83867
EC11   EC   0.47315  0.29850  0.16133
EC12   EC   0.47315  0.29850  0.83867
EC13   EC   0.52685  0.70150  0.16133
EC14   EC   0.52685  0.70150  0.83867
EC15   EC   0.52685  0.82535  0.16133
EC16   EC   0.52685  0.82535  0.83867
EC17   EC   0.70150  0.17465  0.16133
EC18   EC   0.70150  0.17465  0.83867
EC19   EC   0.70150  0.52685  0.16133
EC20   EC   0.70150  0.52685  0.83867
EC21   EC   0.82535  0.29850  0.16133
EC22   EC   0.82535  0.29850  0.83867
EC23   EC   0.82535  0.52685  0.16133
EC24   EC   0.82535  0.52685  0.83867
E1    E   0.00000  0.43807  0.33867
E2    E   0.00000  0.43807  0.66133
E3    E   0.00000  0.56193  0.33867
E4    E   0.00000  0.56193  0.66133
E5    E   0.07151  0.47382  0.50000
E6    E   0.07151  0.53575  0.33867
E7    E   0.07151  0.53575  0.66133
E8    E   0.07151  0.53576  0.33867
E9    E   0.07151  0.53576  0.66133
E10   E   0.07151  0.59769  0.50000
E11   E   0.12308  0.47349  0.25000
E12   E   0.12308  0.47349  0.75000
E13   E   0.12308  0.64959  0.25000
E14   E   0.12308  0.64959  0.75000
E15   E   0.17465  0.47315  0.00000
E16   E   0.17465  0.70150  0.00000
E17   E   0.23657  0.47315  0.16133
E18   E   0.23657  0.47315  0.83867
E19   E   0.23657  0.76342  0.16133
E20   E   0.23657  0.76342  0.83867
E21   E   0.23658  0.47315  0.16133
E22   E   0.23658  0.47315  0.83867
E23   E   0.23658  0.76343  0.16133
E24   E   0.23658  0.76343  0.83867
E25   E   0.29850  0.47315  0.00000
E26   E   0.29850  0.82535  0.00000
E27   E   0.35041  0.47349  0.25000
E28   E   0.35041  0.47349  0.75000
E29   E   0.35041  0.87692  0.25000
E30   E   0.35041  0.87692  0.75000
E31   E   0.40231  0.47382  0.50000
E32   E   0.40231  0.92849  0.50000
E33   E   0.43807  0.00000  0.33867
E34   E   0.43807  0.00000  0.66133
E35   E   0.43807  0.43807  0.33867
E36   E   0.43807  0.43807  0.66133
E37   E   0.46424  0.53575  0.33867
E38   E   0.46424  0.53575  0.66133
E39   E   0.46424  0.92849  0.33867
E40   E   0.46424  0.92849  0.66133
E41   E   0.46425  0.53576  0.33867
E42   E   0.46425  0.53576  0.66133
E43   E   0.46425  0.92849  0.33867
E44   E   0.46425  0.92849  0.66133
E45   E   0.47315  0.17465  0.00000
E46   E   0.47315  0.23657  0.16133
E47   E   0.47315  0.23657  0.83867
E48   E   0.47315  0.23658  0.16133
E49   E   0.47315  0.23658  0.83867
E50   E   0.47315  0.29850  0.00000
E51   E   0.47349  0.12308  0.25000
E52   E   0.47349  0.12308  0.75000
E53   E   0.47349  0.35041  0.25000
E54   E   0.47349  0.35041  0.75000
E55   E   0.47382  0.07151  0.50000
E56   E   0.47382  0.40231  0.50000
E57   E   0.52618  0.59769  0.50000
E58   E   0.52618  0.92849  0.50000
E59   E   0.52651  0.64959  0.25000
E60   E   0.52651  0.64959  0.75000
E61   E   0.52651  0.87692  0.25000
E62   E   0.52651  0.87692  0.75000
E63   E   0.52685  0.70150  0.00000
E64   E   0.52685  0.76342  0.16133
E65   E   0.52685  0.76342  0.83867
E66   E   0.52685  0.76343  0.16133
E67   E   0.52685  0.76343  0.83867
E68   E   0.52685  0.82535  0.00000
E69   E   0.53575  0.07151  0.33867
E70   E   0.53575  0.07151  0.66133
E71   E   0.53575  0.46424  0.33867
E72   E   0.53575  0.46424  0.66133
E73   E   0.53576  0.07151  0.33867
E74   E   0.53576  0.07151  0.66133
E75   E   0.53576  0.46425  0.33867
E76   E   0.53576  0.46425  0.66133
E77   E   0.56193  0.00000  0.33867
E78   E   0.56193  0.00000  0.66133
E79   E   0.56193  0.56193  0.33867
E80   E   0.56193  0.56193  0.66133
E81   E   0.59769  0.07151  0.50000
E82   E   0.59769  0.52618  0.50000
E83   E   0.64959  0.12308  0.25000
E84   E   0.64959  0.12308  0.75000
E85   E   0.64959  0.52651  0.25000
E86   E   0.64959  0.52651  0.75000
E87   E   0.70150  0.17465  0.00000
E88   E   0.70150  0.52685  0.00000
E89   E   0.76342  0.23657  0.16133
E90   E   0.76342  0.23657  0.83867
E91   E   0.76342  0.52685  0.16133
E92   E   0.76342  0.52685  0.83867
E93   E   0.76343  0.23658  0.16133
E94   E   0.76343  0.23658  0.83867
E95   E   0.76343  0.52685  0.16133
E96   E   0.76343  0.52685  0.83867
E97   E   0.82535  0.29850  0.00000
E98   E   0.82535  0.52685  0.00000
E99   E   0.87692  0.35041  0.25000
E100  E   0.87692  0.35041  0.75000
E101  E   0.87692  0.52651  0.25000
E102  E   0.87692  0.52651  0.75000
E103  E   0.92849  0.40231  0.50000
E104  E   0.92849  0.46424  0.33867
E105  E   0.92849  0.46424  0.66133
E106  E   0.92849  0.46425  0.33867
E107  E   0.92849  0.46425  0.66133
E108  E   0.92849  0.52618  0.50000
loop_
