data_ctn-a_I-43d  hall_number: 516, V_con: 4, EC_con: 3
_audit_creation_date              2025-03-06
_audit_creation_method            'MOFbuilder_1.0'
_symmetry_space_group_name_H-M    'P1'
_symmetry_Int_Tables_number       1
_symmetry_cell_setting            triclinic
loop_
_symmetry_equiv_pos_as_xyz
  x,y,z
_cell_length_a                    81.05850000000001
_cell_length_b                    81.05850000000001
_cell_length_c                    81.05850000000001
_cell_angle_alpha                 90.0
_cell_angle_beta                  90.0
_cell_angle_gamma                 90.0
loop_
_atom_site_label
_atom_site_type_symbol
_atom_site_fract_x
_atom_site_fract_y
_atom_site_fract_z
V1    V   0.01172  0.31056  0.41862
V2    V   0.01172  0.68944  0.08138
V3    V   0.06056  0.23828  0.33138
V4    V   0.06056  0.76172  0.16862
V5    V   0.08138  0.01172  0.68944
V6    V   0.08138  0.98828  0.81056
V7    V   0.16862  0.06056  0.76172
V8    V   0.16862  0.93944  0.73828
V9    V   0.18944  0.41862  0.98828
V10   V   0.18944  0.58138  0.51172
V11   V   0.23828  0.33138  0.06056
V12   V   0.23828  0.66862  0.43944
V13   V   0.26172  0.33138  0.93944
V14   V   0.26172  0.66862  0.56056
V15   V   0.31056  0.41862  0.01172
V16   V   0.31056  0.58138  0.48828
V17   V   0.33138  0.06056  0.23828
V18   V   0.33138  0.93944  0.26172
V19   V   0.41862  0.01172  0.31056
V20   V   0.41862  0.98828  0.18944
V21   V   0.43944  0.23828  0.66862
V22   V   0.43944  0.76172  0.83138
V23   V   0.48828  0.31056  0.58138
V24   V   0.48828  0.68944  0.91862
V25   V   0.51172  0.18944  0.58138
V26   V   0.51172  0.81056  0.91862
V27   V   0.56056  0.26172  0.66862
V28   V   0.56056  0.73828  0.83138
V29   V   0.58138  0.48828  0.31056
V30   V   0.58138  0.51172  0.18944
V31   V   0.66862  0.43944  0.23828
V32   V   0.66862  0.56056  0.26172
V33   V   0.68944  0.08138  0.01172
V34   V   0.68944  0.91862  0.48828
V35   V   0.73828  0.16862  0.93944
V36   V   0.73828  0.83138  0.56056
V37   V   0.76172  0.16862  0.06056
V38   V   0.76172  0.83138  0.43944
V39   V   0.81056  0.08138  0.98828
V40   V   0.81056  0.91862  0.51172
V41   V   0.83138  0.43944  0.76172
V42   V   0.83138  0.56056  0.73828
V43   V   0.91862  0.48828  0.68944
V44   V   0.91862  0.51172  0.81056
V45   V   0.93944  0.26172  0.33138
V46   V   0.93944  0.73828  0.16862
V47   V   0.98828  0.18944  0.41862
V48   V   0.98828  0.81056  0.08138
EC1    EC   0.00497  0.02960  0.59425
EC2    EC   0.00497  0.97040  0.90575
EC3    EC   0.02960  0.40575  0.49503
EC4    EC   0.02960  0.59425  0.00497
EC5    EC   0.09425  0.49503  0.97040
EC6    EC   0.09425  0.50497  0.52960
EC7    EC   0.15575  0.22040  0.25497
EC8    EC   0.15575  0.77960  0.24503
EC9    EC   0.22040  0.25497  0.15575
EC10   EC   0.22040  0.74503  0.34425
EC11   EC   0.24503  0.15575  0.77960
EC12   EC   0.24503  0.84425  0.72040
EC13   EC   0.25497  0.15575  0.22040
EC14   EC   0.25497  0.84425  0.27960
EC15   EC   0.27960  0.25497  0.84425
EC16   EC   0.27960  0.74503  0.65575
EC17   EC   0.34425  0.22040  0.74503
EC18   EC   0.34425  0.77960  0.75497
EC19   EC   0.40575  0.49503  0.02960
EC20   EC   0.40575  0.50497  0.47040
EC21   EC   0.47040  0.40575  0.50497
EC22   EC   0.47040  0.59425  0.99503
EC23   EC   0.49503  0.02960  0.40575
EC24   EC   0.49503  0.97040  0.09425
EC25   EC   0.50497  0.47040  0.40575
EC26   EC   0.50497  0.52960  0.09425
EC27   EC   0.52960  0.09425  0.50497
EC28   EC   0.52960  0.90575  0.99503
EC29   EC   0.59425  0.00497  0.02960
EC30   EC   0.59425  0.99503  0.47040
EC31   EC   0.65575  0.27960  0.74503
EC32   EC   0.65575  0.72040  0.75497
EC33   EC   0.72040  0.24503  0.84425
EC34   EC   0.72040  0.75497  0.65575
EC35   EC   0.74503  0.34425  0.22040
EC36   EC   0.74503  0.65575  0.27960
EC37   EC   0.75497  0.34425  0.77960
EC38   EC   0.75497  0.65575  0.72040
EC39   EC   0.77960  0.24503  0.15575
EC40   EC   0.77960  0.75497  0.34425
EC41   EC   0.84425  0.27960  0.25497
EC42   EC   0.84425  0.72040  0.24503
EC43   EC   0.90575  0.00497  0.97040
EC44   EC   0.90575  0.99503  0.52960
EC45   EC   0.97040  0.09425  0.49503
EC46   EC   0.97040  0.90575  0.00497
EC47   EC   0.99503  0.47040  0.59425
EC48   EC   0.99503  0.52960  0.90575
E1    E   0.00000  0.25000  0.33138
E2    E   0.00000  0.25000  0.41862
E3    E   0.00000  0.75000  0.08138
E4    E   0.00000  0.75000  0.16862
E5    E   0.01231  0.43808  0.54464
E6    E   0.01231  0.56192  0.95536
E7    E   0.02066  0.35816  0.45682
E8    E   0.02066  0.64184  0.04318
E9    E   0.02442  0.21386  0.37500
E10   E   0.02442  0.78614  0.12500
E11   E   0.03614  0.27442  0.37500
E12   E   0.03614  0.72558  0.12500
E13   E   0.04318  0.02066  0.64184
E14   E   0.04318  0.97934  0.85816
E15   E   0.04464  0.48769  0.56192
E16   E   0.04464  0.51231  0.93808
E17   E   0.06192  0.45536  0.51231
E18   E   0.06192  0.54464  0.98769
E19   E   0.08138  0.00000  0.75000
E20   E   0.10816  0.22934  0.29318
E21   E   0.10816  0.77066  0.20682
E22   E   0.12500  0.02442  0.78614
E23   E   0.12500  0.03614  0.72558
E24   E   0.12500  0.96386  0.77442
E25   E   0.12500  0.97558  0.71386
E26   E   0.14184  0.45682  0.97934
E27   E   0.14184  0.54318  0.52066
E28   E   0.16862  0.00000  0.75000
E29   E   0.18808  0.23769  0.20536
E30   E   0.18808  0.76231  0.29464
E31   E   0.20536  0.18808  0.23769
E32   E   0.20536  0.81192  0.26231
E33   E   0.20682  0.10816  0.77066
E34   E   0.20682  0.89184  0.72934
E35   E   0.21386  0.37500  0.02442
E36   E   0.21386  0.62500  0.47558
E37   E   0.22558  0.37500  0.96386
E38   E   0.22558  0.62500  0.53614
E39   E   0.22934  0.29318  0.10816
E40   E   0.22934  0.70682  0.39184
E41   E   0.23769  0.20536  0.18808
E42   E   0.23769  0.79464  0.31192
E43   E   0.25000  0.33138  0.00000
E44   E   0.25000  0.41862  0.00000
E45   E   0.25000  0.58138  0.50000
E46   E   0.25000  0.66862  0.50000
E47   E   0.26231  0.20536  0.81192
E48   E   0.26231  0.79464  0.68808
E49   E   0.27066  0.29318  0.89184
E50   E   0.27066  0.70682  0.60816
E51   E   0.27442  0.37500  0.03614
E52   E   0.27442  0.62500  0.46386
E53   E   0.28614  0.37500  0.97558
E54   E   0.28614  0.62500  0.52442
E55   E   0.29318  0.10816  0.22934
E56   E   0.29318  0.89184  0.27066
E57   E   0.29464  0.18808  0.76231
E58   E   0.29464  0.81192  0.73769
E59   E   0.31192  0.23769  0.79464
E60   E   0.31192  0.76231  0.70536
E61   E   0.33138  0.00000  0.25000
E62   E   0.35816  0.45682  0.02066
E63   E   0.35816  0.54318  0.47934
E64   E   0.37500  0.02442  0.21386
E65   E   0.37500  0.03614  0.27442
E66   E   0.37500  0.96386  0.22558
E67   E   0.37500  0.97558  0.28614
E68   E   0.39184  0.22934  0.70682
E69   E   0.39184  0.77066  0.79318
E70   E   0.41862  0.00000  0.25000
E71   E   0.43808  0.45536  0.48769
E72   E   0.43808  0.54464  0.01231
E73   E   0.45536  0.48769  0.43808
E74   E   0.45536  0.51231  0.06192
E75   E   0.45682  0.02066  0.35816
E76   E   0.45682  0.97934  0.14184
E77   E   0.46386  0.27442  0.62500
E78   E   0.46386  0.72558  0.87500
E79   E   0.47558  0.21386  0.62500
E80   E   0.47558  0.78614  0.87500
E81   E   0.47934  0.35816  0.54318
E82   E   0.47934  0.64184  0.95682
E83   E   0.48769  0.43808  0.45536
E84   E   0.48769  0.56192  0.04464
E85   E   0.50000  0.25000  0.58138
E86   E   0.50000  0.25000  0.66862
E87   E   0.50000  0.75000  0.83138
E88   E   0.50000  0.75000  0.91862
E89   E   0.51231  0.06192  0.45536
E90   E   0.51231  0.93808  0.04464
E91   E   0.52066  0.14184  0.54318
E92   E   0.52066  0.85816  0.95682
E93   E   0.52442  0.28614  0.62500
E94   E   0.52442  0.71386  0.87500
E95   E   0.53614  0.22558  0.62500
E96   E   0.53614  0.77442  0.87500
E97   E   0.54318  0.47934  0.35816
E98   E   0.54318  0.52066  0.14184
E99   E   0.54464  0.01231  0.43808
E100  E   0.54464  0.98769  0.06192
E101  E   0.56192  0.04464  0.48769
E102  E   0.56192  0.95536  0.01231
E103  E   0.58138  0.50000  0.25000
E104  E   0.60816  0.27066  0.70682
E105  E   0.60816  0.72934  0.79318
E106  E   0.62500  0.46386  0.27442
E107  E   0.62500  0.47558  0.21386
E108  E   0.62500  0.52442  0.28614
E109  E   0.62500  0.53614  0.22558
E110  E   0.64184  0.04318  0.02066
E111  E   0.64184  0.95682  0.47934
E112  E   0.66862  0.50000  0.25000
E113  E   0.68808  0.26231  0.79464
E114  E   0.68808  0.73769  0.70536
E115  E   0.70536  0.31192  0.76231
E116  E   0.70536  0.68808  0.73769
E117  E   0.70682  0.39184  0.22934
E118  E   0.70682  0.60816  0.27066
E119  E   0.71386  0.12500  0.97558
E120  E   0.71386  0.87500  0.52442
E121  E   0.72558  0.12500  0.03614
E122  E   0.72558  0.87500  0.46386
E123  E   0.72934  0.20682  0.89184
E124  E   0.72934  0.79318  0.60816
E125  E   0.73769  0.29464  0.81192
E126  E   0.73769  0.70536  0.68808
E127  E   0.75000  0.08138  0.00000
E128  E   0.75000  0.16862  0.00000
E129  E   0.75000  0.83138  0.50000
E130  E   0.75000  0.91862  0.50000
E131  E   0.76231  0.29464  0.18808
E132  E   0.76231  0.70536  0.31192
E133  E   0.77066  0.20682  0.10816
E134  E   0.77066  0.79318  0.39184
E135  E   0.77442  0.12500  0.96386
E136  E   0.77442  0.87500  0.53614
E137  E   0.78614  0.12500  0.02442
E138  E   0.78614  0.87500  0.47558
E139  E   0.79318  0.39184  0.77066
E140  E   0.79318  0.60816  0.72934
E141  E   0.79464  0.31192  0.23769
E142  E   0.79464  0.68808  0.26231
E143  E   0.81192  0.26231  0.20536
E144  E   0.81192  0.73769  0.29464
E145  E   0.83138  0.50000  0.75000
E146  E   0.85816  0.04318  0.97934
E147  E   0.85816  0.95682  0.52066
E148  E   0.87500  0.46386  0.72558
E149  E   0.87500  0.47558  0.78614
E150  E   0.87500  0.52442  0.71386
E151  E   0.87500  0.53614  0.77442
E152  E   0.89184  0.27066  0.29318
E153  E   0.89184  0.72934  0.20682
E154  E   0.91862  0.50000  0.75000
E155  E   0.93808  0.04464  0.51231
E156  E   0.93808  0.95536  0.98769
E157  E   0.95536  0.01231  0.56192
E158  E   0.95536  0.98769  0.93808
E159  E   0.95682  0.47934  0.64184
E160  E   0.95682  0.52066  0.85816
E161  E   0.96386  0.22558  0.37500
E162  E   0.96386  0.77442  0.12500
E163  E   0.97558  0.28614  0.37500
E164  E   0.97558  0.71386  0.12500
E165  E   0.97934  0.14184  0.45682
E166  E   0.97934  0.85816  0.04318
E167  E   0.98769  0.06192  0.54464
E168  E   0.98769  0.93808  0.95536
loop_
