data_cua_I41/a:2  hall_number: 365, V_con: 4, EC_con: 4
_audit_creation_date              2025-03-06
_audit_creation_method            'MOFbuilder_1.0'
_symmetry_space_group_name_H-M    'P1'
_symmetry_Int_Tables_number       1
_symmetry_cell_setting            triclinic
loop_
_symmetry_equiv_pos_as_xyz
  x,y,z
_cell_length_a                    33.2224
_cell_length_b                    33.2224
_cell_length_c                    61.445499999999996
_cell_angle_alpha                 90.0
_cell_angle_beta                  90.0
_cell_angle_gamma                 90.0
loop_
_atom_site_label
_atom_site_type_symbol
_atom_site_fract_x
_atom_site_fract_y
_atom_site_fract_z
V1    V   0.09032  0.12962  0.17376
V2    V   0.09032  0.62962  0.82624
V3    V   0.12038  0.34032  0.07624
V4    V   0.12038  0.84032  0.92376
V5    V   0.37962  0.15968  0.42376
V6    V   0.37962  0.65968  0.57624
V7    V   0.40968  0.37038  0.32624
V8    V   0.40968  0.87038  0.67376
V9    V   0.59032  0.12962  0.32624
V10   V   0.59032  0.62962  0.67376
V11   V   0.62038  0.34032  0.42376
V12   V   0.62038  0.84032  0.57624
V13   V   0.87962  0.15968  0.07624
V14   V   0.87962  0.65968  0.92376
V15   V   0.90968  0.37038  0.17376
V16   V   0.90968  0.87038  0.82624
EC1    EC   0.02811  0.39785  0.92449
EC2    EC   0.02811  0.89785  0.07551
EC3    EC   0.14785  0.22189  0.32551
EC4    EC   0.14785  0.72189  0.67449
EC5    EC   0.35215  0.27811  0.17449
EC6    EC   0.35215  0.77811  0.82551
EC7    EC   0.47189  0.10215  0.57551
EC8    EC   0.47189  0.60215  0.42449
EC9    EC   0.52811  0.39785  0.57551
EC10   EC   0.52811  0.89785  0.42449
EC11   EC   0.64785  0.22189  0.17449
EC12   EC   0.64785  0.72189  0.82551
EC13   EC   0.85215  0.27811  0.32551
EC14   EC   0.85215  0.77811  0.67449
EC15   EC   0.97189  0.10215  0.92449
EC16   EC   0.97189  0.60215  0.07551
E1    E   0.00000  0.25000  0.07624
E2    E   0.00000  0.25000  0.17376
E3    E   0.00000  0.25000  0.32551
E4    E   0.00000  0.25000  0.92449
E5    E   0.00000  0.75000  0.07551
E6    E   0.00000  0.75000  0.67449
E7    E   0.00000  0.75000  0.82624
E8    E   0.00000  0.75000  0.92376
E9    E   0.04614  0.47124  0.07588
E10   E   0.04614  0.97124  0.92412
E11   E   0.05922  0.01374  0.12464
E12   E   0.05922  0.51374  0.87536
E13   E   0.07424  0.36909  0.00036
E14   E   0.07424  0.86909  0.99964
E15   E   0.11909  0.17576  0.24964
E16   E   0.11909  0.67576  0.75036
E17   E   0.22124  0.20386  0.17412
E18   E   0.22124  0.70386  0.82588
E19   E   0.23626  0.30922  0.12536
E20   E   0.23626  0.80922  0.87464
E21   E   0.26374  0.19078  0.37464
E22   E   0.26374  0.69078  0.62536
E23   E   0.27876  0.29614  0.32588
E24   E   0.27876  0.79614  0.67412
E25   E   0.38091  0.32424  0.25036
E26   E   0.38091  0.82424  0.74964
E27   E   0.42576  0.13091  0.49964
E28   E   0.42576  0.63091  0.50036
E29   E   0.44078  0.48626  0.37536
E30   E   0.44078  0.98626  0.62464
E31   E   0.45386  0.02876  0.42412
E32   E   0.45386  0.52876  0.57588
E33   E   0.50000  0.25000  0.17449
E34   E   0.50000  0.25000  0.32624
E35   E   0.50000  0.25000  0.42376
E36   E   0.50000  0.25000  0.57551
E37   E   0.50000  0.75000  0.42449
E38   E   0.50000  0.75000  0.57624
E39   E   0.50000  0.75000  0.67376
E40   E   0.50000  0.75000  0.82551
E41   E   0.54614  0.47124  0.42412
E42   E   0.54614  0.97124  0.57588
E43   E   0.55922  0.01374  0.37536
E44   E   0.55922  0.51374  0.62464
E45   E   0.57424  0.36909  0.49964
E46   E   0.57424  0.86909  0.50036
E47   E   0.61909  0.17576  0.25036
E48   E   0.61909  0.67576  0.74964
E49   E   0.72124  0.20386  0.32588
E50   E   0.72124  0.70386  0.67412
E51   E   0.73626  0.30922  0.37464
E52   E   0.73626  0.80922  0.62536
E53   E   0.76374  0.19078  0.12536
E54   E   0.76374  0.69078  0.87464
E55   E   0.77876  0.29614  0.17412
E56   E   0.77876  0.79614  0.82588
E57   E   0.88091  0.32424  0.24964
E58   E   0.88091  0.82424  0.75036
E59   E   0.92576  0.13091  0.00036
E60   E   0.92576  0.63091  0.99964
E61   E   0.94078  0.48626  0.12464
E62   E   0.94078  0.98626  0.87536
E63   E   0.95386  0.02876  0.07588
E64   E   0.95386  0.52876  0.92412
loop_
