data_cus_Cmcm  hall_number: 298, V_con: 4, EC_con: 4
_audit_creation_date              2025-03-06
_audit_creation_method            'MOFbuilder_1.0'
_symmetry_space_group_name_H-M    'P1'
_symmetry_Int_Tables_number       1
_symmetry_cell_setting            triclinic
loop_
_symmetry_equiv_pos_as_xyz
  x,y,z
_cell_length_a                    16.8734
_cell_length_b                    41.955299999999994
_cell_length_c                    40.8215
_cell_angle_alpha                 90.0
_cell_angle_beta                  90.0
_cell_angle_gamma                 90.0
loop_
_atom_site_label
_atom_site_type_symbol
_atom_site_fract_x
_atom_site_fract_y
_atom_site_fract_z
V1    V   0.00000  0.19804  0.12752
V2    V   0.00000  0.19804  0.37248
V3    V   0.00000  0.80196  0.62752
V4    V   0.00000  0.80196  0.87248
V5    V   0.50000  0.30196  0.62752
V6    V   0.50000  0.30196  0.87248
V7    V   0.50000  0.69804  0.12752
V8    V   0.50000  0.69804  0.37248
EC1    EC   0.00000  0.38359  0.52624
EC2    EC   0.00000  0.38359  0.97376
EC3    EC   0.00000  0.61641  0.02624
EC4    EC   0.00000  0.61641  0.47376
EC5    EC   0.50000  0.11641  0.02624
EC6    EC   0.50000  0.11641  0.47376
EC7    EC   0.50000  0.88359  0.52624
EC8    EC   0.50000  0.88359  0.97376
E1    E   0.00000  0.19804  0.25000
E2    E   0.00000  0.29082  0.05064
E3    E   0.00000  0.29082  0.44936
E4    E   0.00000  0.50000  0.00000
E5    E   0.00000  0.50000  0.50000
E6    E   0.00000  0.70918  0.55064
E7    E   0.00000  0.70918  0.94936
E8    E   0.00000  0.80196  0.75000
E9    E   0.25000  0.15722  0.07688
E10   E   0.25000  0.15722  0.42312
E11   E   0.25000  0.34278  0.57688
E12   E   0.25000  0.34278  0.92312
E13   E   0.25000  0.65722  0.07688
E14   E   0.25000  0.65722  0.42312
E15   E   0.25000  0.84278  0.57688
E16   E   0.25000  0.84278  0.92312
E17   E   0.50000  0.00000  0.00000
E18   E   0.50000  0.00000  0.50000
E19   E   0.50000  0.20918  0.55064
E20   E   0.50000  0.20918  0.94936
E21   E   0.50000  0.30196  0.75000
E22   E   0.50000  0.69804  0.25000
E23   E   0.50000  0.79082  0.05064
E24   E   0.50000  0.79082  0.44936
E25   E   0.75000  0.15722  0.07688
E26   E   0.75000  0.15722  0.42312
E27   E   0.75000  0.34278  0.57688
E28   E   0.75000  0.34278  0.92312
E29   E   0.75000  0.65722  0.07688
E30   E   0.75000  0.65722  0.42312
E31   E   0.75000  0.84278  0.57688
E32   E   0.75000  0.84278  0.92312
loop_
