data_czz_I-43d  hall_number: 516, V_con: 6, EC_con: 3
_audit_creation_date              2025-03-06
_audit_creation_method            'MOFbuilder_1.0'
_symmetry_space_group_name_H-M    'P1'
_symmetry_Int_Tables_number       1
_symmetry_cell_setting            triclinic
loop_
_symmetry_equiv_pos_as_xyz
  x,y,z
_cell_length_a                    34.2857
_cell_length_b                    34.2857
_cell_length_c                    34.2857
_cell_angle_alpha                 90.0
_cell_angle_beta                  90.0
_cell_angle_gamma                 90.0
loop_
_atom_site_label
_atom_site_type_symbol
_atom_site_fract_x
_atom_site_fract_y
_atom_site_fract_z
V1    V   0.00000  0.25000  0.87500
V2    V   0.00000  0.75000  0.62500
V3    V   0.12500  0.50000  0.25000
V4    V   0.25000  0.12500  0.50000
V5    V   0.25000  0.87500  0.00000
V6    V   0.37500  0.50000  0.75000
V7    V   0.50000  0.25000  0.12500
V8    V   0.50000  0.75000  0.37500
V9    V   0.62500  0.00000  0.75000
V10   V   0.75000  0.37500  0.50000
V11   V   0.75000  0.62500  0.00000
V12   V   0.87500  0.00000  0.25000
EC1    EC   0.00000  0.25000  0.16667
EC2    EC   0.00000  0.25000  0.58333
EC3    EC   0.00000  0.75000  0.33333
EC4    EC   0.00000  0.75000  0.91667
EC5    EC   0.08333  0.50000  0.75000
EC6    EC   0.16667  0.00000  0.25000
EC7    EC   0.25000  0.16667  0.00000
EC8    EC   0.25000  0.41667  0.50000
EC9    EC   0.25000  0.58333  0.00000
EC10   EC   0.25000  0.83333  0.50000
EC11   EC   0.33333  0.00000  0.75000
EC12   EC   0.41667  0.50000  0.25000
EC13   EC   0.50000  0.25000  0.41667
EC14   EC   0.50000  0.25000  0.83333
EC15   EC   0.50000  0.75000  0.08333
EC16   EC   0.50000  0.75000  0.66667
EC17   EC   0.58333  0.00000  0.25000
EC18   EC   0.66667  0.50000  0.75000
EC19   EC   0.75000  0.08333  0.50000
EC20   EC   0.75000  0.33333  0.00000
EC21   EC   0.75000  0.66667  0.50000
EC22   EC   0.75000  0.91667  0.00000
EC23   EC   0.83333  0.50000  0.25000
EC24   EC   0.91667  0.00000  0.75000
E1    E   0.00000  0.25000  0.02083
E2    E   0.00000  0.25000  0.72917
E3    E   0.00000  0.75000  0.47917
E4    E   0.00000  0.75000  0.77083
E5    E   0.02083  0.00000  0.25000
E6    E   0.04167  0.37500  0.81250
E7    E   0.04167  0.62500  0.68750
E8    E   0.06250  0.37500  0.20833
E9    E   0.06250  0.62500  0.29167
E10   E   0.12500  0.18750  0.54167
E11   E   0.12500  0.20833  0.93750
E12   E   0.12500  0.79167  0.56250
E13   E   0.12500  0.81250  0.95833
E14   E   0.18750  0.45833  0.37500
E15   E   0.18750  0.54167  0.12500
E16   E   0.20833  0.06250  0.37500
E17   E   0.20833  0.93750  0.12500
E18   E   0.22917  0.50000  0.75000
E19   E   0.25000  0.02083  0.00000
E20   E   0.25000  0.27083  0.50000
E21   E   0.25000  0.72917  0.00000
E22   E   0.25000  0.97917  0.50000
E23   E   0.27083  0.50000  0.25000
E24   E   0.29167  0.06250  0.62500
E25   E   0.29167  0.93750  0.87500
E26   E   0.31250  0.45833  0.62500
E27   E   0.31250  0.54167  0.87500
E28   E   0.37500  0.18750  0.45833
E29   E   0.37500  0.20833  0.06250
E30   E   0.37500  0.79167  0.43750
E31   E   0.37500  0.81250  0.04167
E32   E   0.43750  0.37500  0.79167
E33   E   0.43750  0.62500  0.70833
E34   E   0.45833  0.37500  0.18750
E35   E   0.45833  0.62500  0.31250
E36   E   0.47917  0.00000  0.75000
E37   E   0.50000  0.25000  0.27083
E38   E   0.50000  0.25000  0.97917
E39   E   0.50000  0.75000  0.22917
E40   E   0.50000  0.75000  0.52083
E41   E   0.52083  0.50000  0.75000
E42   E   0.54167  0.12500  0.18750
E43   E   0.54167  0.87500  0.31250
E44   E   0.56250  0.12500  0.79167
E45   E   0.56250  0.87500  0.70833
E46   E   0.62500  0.29167  0.06250
E47   E   0.62500  0.31250  0.45833
E48   E   0.62500  0.68750  0.04167
E49   E   0.62500  0.70833  0.43750
E50   E   0.68750  0.04167  0.62500
E51   E   0.68750  0.95833  0.87500
E52   E   0.70833  0.43750  0.62500
E53   E   0.70833  0.56250  0.87500
E54   E   0.72917  0.00000  0.25000
E55   E   0.75000  0.22917  0.50000
E56   E   0.75000  0.47917  0.00000
E57   E   0.75000  0.52083  0.50000
E58   E   0.75000  0.77083  0.00000
E59   E   0.77083  0.00000  0.75000
E60   E   0.79167  0.43750  0.37500
E61   E   0.79167  0.56250  0.12500
E62   E   0.81250  0.04167  0.37500
E63   E   0.81250  0.95833  0.12500
E64   E   0.87500  0.29167  0.93750
E65   E   0.87500  0.31250  0.54167
E66   E   0.87500  0.68750  0.95833
E67   E   0.87500  0.70833  0.56250
E68   E   0.93750  0.12500  0.20833
E69   E   0.93750  0.87500  0.29167
E70   E   0.95833  0.12500  0.81250
E71   E   0.95833  0.87500  0.68750
E72   E   0.97917  0.50000  0.25000
loop_
