data_dag_P42/mnm  hall_number: 419, V_con: 6, EC_con: 3
_audit_creation_date              2025-03-06
_audit_creation_method            'MOFbuilder_1.0'
_symmetry_space_group_name_H-M    'P1'
_symmetry_Int_Tables_number       1
_symmetry_cell_setting            triclinic
loop_
_symmetry_equiv_pos_as_xyz
  x,y,z
_cell_length_a                    27.9232
_cell_length_b                    27.9232
_cell_length_c                    23.246199999999998
_cell_angle_alpha                 90.0
_cell_angle_beta                  90.0
_cell_angle_gamma                 90.0
loop_
_atom_site_label
_atom_site_type_symbol
_atom_site_fract_x
_atom_site_fract_y
_atom_site_fract_z
V1    V   0.15289  0.84711  0.00000
V2    V   0.15289  0.84711  0.00000
V3    V   0.34711  0.34711  0.50000
V4    V   0.65289  0.65289  0.50000
V5    V   0.84711  0.15289  0.00000
V6    V   0.84711  0.15289  0.00000
EC1    EC   0.15395  0.15395  0.22182
EC2    EC   0.15395  0.15395  0.77818
EC3    EC   0.34605  0.65395  0.27818
EC4    EC   0.34605  0.65395  0.72182
EC5    EC   0.65395  0.34605  0.27818
EC6    EC   0.65395  0.34605  0.72182
EC7    EC   0.84605  0.84605  0.22182
EC8    EC   0.84605  0.84605  0.77818
E1    E   0.00053  0.15342  0.11091
E2    E   0.00053  0.15342  0.88909
E3    E   0.15342  0.00053  0.11091
E4    E   0.15342  0.00053  0.88909
E5    E   0.24947  0.75053  0.13909
E6    E   0.24947  0.75053  0.86091
E7    E   0.24947  0.75053  0.13909
E8    E   0.24947  0.75053  0.86091
E9    E   0.25053  0.25053  0.36091
E10   E   0.25053  0.25053  0.63909
E11   E   0.25053  0.25053  0.36091
E12   E   0.25053  0.25053  0.63909
E13   E   0.34658  0.50053  0.38909
E14   E   0.34658  0.50053  0.61091
E15   E   0.49947  0.65342  0.38909
E16   E   0.49947  0.65342  0.61091
E17   E   0.50053  0.34658  0.38909
E18   E   0.50053  0.34658  0.61091
E19   E   0.65342  0.49947  0.38909
E20   E   0.65342  0.49947  0.61091
E21   E   0.74947  0.74947  0.36091
E22   E   0.74947  0.74947  0.63909
E23   E   0.75053  0.24947  0.13909
E24   E   0.75053  0.24947  0.86091
E25   E   0.75053  0.24947  0.13909
E26   E   0.75053  0.24947  0.86091
E27   E   0.84658  0.99947  0.11091
E28   E   0.84658  0.99947  0.88909
E29   E   0.99947  0.84658  0.11091
E30   E   0.99947  0.84658  0.88909
loop_
