data_deh_I41/amd:2  hall_number: 427, V_con: 3
_audit_creation_date              2025-03-06
_audit_creation_method            'MOFbuilder_1.0'
_symmetry_space_group_name_H-M    'P1'
_symmetry_Int_Tables_number       1
_symmetry_cell_setting            triclinic
loop_
_symmetry_equiv_pos_as_xyz
  x,y,z
_cell_length_a                    37.068400000000004
_cell_length_b                    37.068400000000004
_cell_length_c                    60.8489
_cell_angle_alpha                 90.0
_cell_angle_beta                  90.0
_cell_angle_gamma                 90.0
loop_
_atom_site_label
_atom_site_type_symbol
_atom_site_fract_x
_atom_site_fract_y
_atom_site_fract_z
V1    V   0.13468  0.11511  0.45717
V2    V   0.13468  0.38489  0.45717
V3    V   0.13468  0.61511  0.54283
V4    V   0.13468  0.88489  0.54283
V5    V   0.13489  0.11532  0.29283
V6    V   0.13489  0.38468  0.29283
V7    V   0.13489  0.61532  0.70717
V8    V   0.13489  0.88468  0.70717
V9    V   0.36511  0.11532  0.20717
V10   V   0.36511  0.38468  0.20717
V11   V   0.36511  0.61532  0.79283
V12   V   0.36511  0.88468  0.79283
V13   V   0.36532  0.11511  0.04283
V14   V   0.36532  0.38489  0.04283
V15   V   0.36532  0.61511  0.95717
V16   V   0.36532  0.88489  0.95717
V17   V   0.63468  0.11511  0.04283
V18   V   0.63468  0.38489  0.04283
V19   V   0.63468  0.61511  0.95717
V20   V   0.63468  0.88489  0.95717
V21   V   0.63489  0.11532  0.20717
V22   V   0.63489  0.38468  0.20717
V23   V   0.63489  0.61532  0.79283
V24   V   0.63489  0.88468  0.79283
V25   V   0.86511  0.11532  0.29283
V26   V   0.86511  0.38468  0.29283
V27   V   0.86511  0.61532  0.70717
V28   V   0.86511  0.88468  0.70717
V29   V   0.86532  0.11511  0.45717
V30   V   0.86532  0.38489  0.45717
V31   V   0.86532  0.61511  0.54283
V32   V   0.86532  0.88489  0.54283
E1    E   0.00000  0.11532  0.29283
E2    E   0.00000  0.38468  0.29283
E3    E   0.00000  0.61532  0.70717
E4    E   0.00000  0.88468  0.70717
E5    E   0.13468  0.00000  0.50000
E6    E   0.13468  0.25000  0.45717
E7    E   0.13468  0.50000  0.50000
E8    E   0.13468  0.75000  0.54283
E9    E   0.13478  0.11522  0.37500
E10   E   0.13478  0.11522  0.37500
E11   E   0.13478  0.38478  0.37500
E12   E   0.13478  0.61522  0.62500
E13   E   0.13478  0.88478  0.62500
E14   E   0.25000  0.11532  0.25000
E15   E   0.25000  0.38468  0.25000
E16   E   0.25000  0.61532  0.75000
E17   E   0.25000  0.88468  0.75000
E18   E   0.36522  0.11522  0.12500
E19   E   0.36522  0.11522  0.12500
E20   E   0.36522  0.38478  0.12500
E21   E   0.36522  0.61522  0.87500
E22   E   0.36522  0.88478  0.87500
E23   E   0.36532  0.00000  0.00000
E24   E   0.36532  0.25000  0.04283
E25   E   0.36532  0.50000  0.00000
E26   E   0.36532  0.75000  0.95717
E27   E   0.50000  0.11532  0.20717
E28   E   0.50000  0.38468  0.20717
E29   E   0.50000  0.61532  0.79283
E30   E   0.50000  0.88468  0.79283
E31   E   0.63468  0.00000  0.00000
E32   E   0.63468  0.25000  0.04283
E33   E   0.63468  0.50000  0.00000
E34   E   0.63468  0.75000  0.95717
E35   E   0.63478  0.11522  0.12500
E36   E   0.63478  0.11522  0.12500
E37   E   0.63478  0.38478  0.12500
E38   E   0.63478  0.61522  0.87500
E39   E   0.63478  0.88478  0.87500
E40   E   0.75000  0.11532  0.25000
E41   E   0.75000  0.38468  0.25000
E42   E   0.75000  0.61532  0.75000
E43   E   0.75000  0.88468  0.75000
E44   E   0.86522  0.11522  0.37500
E45   E   0.86522  0.11522  0.37500
E46   E   0.86522  0.38478  0.37500
E47   E   0.86522  0.61522  0.62500
E48   E   0.86522  0.88478  0.62500
E49   E   0.86532  0.00000  0.50000
E50   E   0.86532  0.25000  0.45717
E51   E   0.86532  0.50000  0.50000
E52   E   0.86532  0.75000  0.54283
loop_
