data_dia-g_I4122  hall_number: 375, V_con: 3
_audit_creation_date              2025-03-06
_audit_creation_method            'MOFbuilder_1.0'
_symmetry_space_group_name_H-M    'P1'
_symmetry_Int_Tables_number       1
_symmetry_cell_setting            triclinic
loop_
_symmetry_equiv_pos_as_xyz
  x,y,z
_cell_length_a                    35.9524
_cell_length_b                    35.9524
_cell_length_c                    56.940999999999995
_cell_angle_alpha                 90.0
_cell_angle_beta                  90.0
_cell_angle_gamma                 90.0
loop_
_atom_site_label
_atom_site_type_symbol
_atom_site_fract_x
_atom_site_fract_y
_atom_site_fract_z
V1    V   0.04144  0.13276  0.57777
V2    V   0.04144  0.36724  0.67223
V3    V   0.13276  0.04144  0.42223
V4    V   0.13276  0.45856  0.82777
V5    V   0.36724  0.04144  0.32777
V6    V   0.36724  0.45856  0.92223
V7    V   0.45856  0.13276  0.17223
V8    V   0.45856  0.36724  0.07777
V9    V   0.54144  0.63276  0.07777
V10   V   0.54144  0.86724  0.17223
V11   V   0.63276  0.54144  0.92223
V12   V   0.63276  0.95856  0.32777
V13   V   0.86724  0.54144  0.82777
V14   V   0.86724  0.95856  0.42223
V15   V   0.95856  0.63276  0.67223
V16   V   0.95856  0.86724  0.57777
E1    E   0.00000  0.00000  0.42223
E2    E   0.00000  0.00000  0.57777
E3    E   0.00000  0.50000  0.67223
E4    E   0.00000  0.50000  0.82777
E5    E   0.04144  0.25000  0.62500
E6    E   0.08710  0.08710  0.50000
E7    E   0.08710  0.41290  0.75000
E8    E   0.25000  0.04144  0.37500
E9    E   0.25000  0.45856  0.87500
E10   E   0.41290  0.08710  0.25000
E11   E   0.41290  0.41290  0.00000
E12   E   0.45856  0.25000  0.12500
E13   E   0.50000  0.00000  0.17223
E14   E   0.50000  0.00000  0.32777
E15   E   0.50000  0.50000  0.07777
E16   E   0.50000  0.50000  0.92223
E17   E   0.54144  0.75000  0.12500
E18   E   0.58710  0.58710  0.00000
E19   E   0.58710  0.91290  0.25000
E20   E   0.75000  0.54144  0.87500
E21   E   0.75000  0.95856  0.37500
E22   E   0.91290  0.58710  0.75000
E23   E   0.91290  0.91290  0.50000
E24   E   0.95856  0.75000  0.62500
loop_
