data_dia-a-a_Fd-3m:2  hall_number: 526, V_con: 4, EC_con: 4
_audit_creation_date              2025-03-06
_audit_creation_method            'MOFbuilder_1.0'
_symmetry_space_group_name_H-M    'P1'
_symmetry_Int_Tables_number       1
_symmetry_cell_setting            triclinic
loop_
_symmetry_equiv_pos_as_xyz
  x,y,z
_cell_length_a                    10.79465
_cell_length_b                    10.79465
_cell_length_c                    10.79465
_cell_angle_alpha                 90.0
_cell_angle_beta                  90.0
_cell_angle_gamma                 90.0
loop_
_atom_site_label
_atom_site_type_symbol
_atom_site_fract_x
_atom_site_fract_y
_atom_site_fract_z
V1    V   0.02674  0.02674  0.02674
V2    V   0.02674  0.22326  0.22326
V3    V   0.02674  0.52674  0.52674
V4    V   0.02674  0.72326  0.72326
V5    V   0.22326  0.02674  0.22326
V6    V   0.22326  0.22326  0.02674
V7    V   0.22326  0.52674  0.72326
V8    V   0.22326  0.72326  0.52674
V9    V   0.27674  0.27674  0.97326
V10   V   0.27674  0.47326  0.77674
V11   V   0.27674  0.77674  0.47326
V12   V   0.27674  0.97326  0.27674
V13   V   0.47326  0.27674  0.77674
V14   V   0.47326  0.47326  0.97326
V15   V   0.47326  0.77674  0.27674
V16   V   0.47326  0.97326  0.47326
V17   V   0.52674  0.02674  0.52674
V18   V   0.52674  0.22326  0.72326
V19   V   0.52674  0.52674  0.02674
V20   V   0.52674  0.72326  0.22326
V21   V   0.72326  0.02674  0.72326
V22   V   0.72326  0.22326  0.52674
V23   V   0.72326  0.52674  0.22326
V24   V   0.72326  0.72326  0.02674
V25   V   0.77674  0.27674  0.47326
V26   V   0.77674  0.47326  0.27674
V27   V   0.77674  0.77674  0.97326
V28   V   0.77674  0.97326  0.77674
V29   V   0.97326  0.27674  0.27674
V30   V   0.97326  0.47326  0.47326
V31   V   0.97326  0.77674  0.77674
V32   V   0.97326  0.97326  0.97326
EC1    EC   0.02674  0.09225  0.09225
EC2    EC   0.02674  0.15775  0.15775
EC3    EC   0.02674  0.59225  0.59225
EC4    EC   0.02674  0.65775  0.65775
EC5    EC   0.09225  0.02674  0.09225
EC6    EC   0.09225  0.09225  0.02674
EC7    EC   0.09225  0.15775  0.22326
EC8    EC   0.09225  0.22326  0.15775
EC9    EC   0.09225  0.52674  0.59225
EC10   EC   0.09225  0.59225  0.52674
EC11   EC   0.09225  0.65775  0.72326
EC12   EC   0.09225  0.72326  0.65775
EC13   EC   0.15775  0.02674  0.15775
EC14   EC   0.15775  0.09225  0.22326
EC15   EC   0.15775  0.15775  0.02674
EC16   EC   0.15775  0.22326  0.09225
EC17   EC   0.15775  0.52674  0.65775
EC18   EC   0.15775  0.59225  0.72326
EC19   EC   0.15775  0.65775  0.52674
EC20   EC   0.15775  0.72326  0.59225
EC21   EC   0.22326  0.09225  0.15775
EC22   EC   0.22326  0.15775  0.09225
EC23   EC   0.22326  0.59225  0.65775
EC24   EC   0.22326  0.65775  0.59225
EC25   EC   0.27674  0.34225  0.90775
EC26   EC   0.27674  0.40775  0.84225
EC27   EC   0.27674  0.84225  0.40775
EC28   EC   0.27674  0.90775  0.34225
EC29   EC   0.34225  0.27674  0.90775
EC30   EC   0.34225  0.34225  0.97326
EC31   EC   0.34225  0.40775  0.77674
EC32   EC   0.34225  0.47326  0.84225
EC33   EC   0.34225  0.77674  0.40775
EC34   EC   0.34225  0.84225  0.47326
EC35   EC   0.34225  0.90775  0.27674
EC36   EC   0.34225  0.97326  0.34225
EC37   EC   0.40775  0.27674  0.84225
EC38   EC   0.40775  0.34225  0.77674
EC39   EC   0.40775  0.40775  0.97326
EC40   EC   0.40775  0.47326  0.90775
EC41   EC   0.40775  0.77674  0.34225
EC42   EC   0.40775  0.84225  0.27674
EC43   EC   0.40775  0.90775  0.47326
EC44   EC   0.40775  0.97326  0.40775
EC45   EC   0.47326  0.34225  0.84225
EC46   EC   0.47326  0.40775  0.90775
EC47   EC   0.47326  0.84225  0.34225
EC48   EC   0.47326  0.90775  0.40775
EC49   EC   0.52674  0.09225  0.59225
EC50   EC   0.52674  0.15775  0.65775
EC51   EC   0.52674  0.59225  0.09225
EC52   EC   0.52674  0.65775  0.15775
EC53   EC   0.59225  0.02674  0.59225
EC54   EC   0.59225  0.09225  0.52674
EC55   EC   0.59225  0.15775  0.72326
EC56   EC   0.59225  0.22326  0.65775
EC57   EC   0.59225  0.52674  0.09225
EC58   EC   0.59225  0.59225  0.02674
EC59   EC   0.59225  0.65775  0.22326
EC60   EC   0.59225  0.72326  0.15775
EC61   EC   0.65775  0.02674  0.65775
EC62   EC   0.65775  0.09225  0.72326
EC63   EC   0.65775  0.15775  0.52674
EC64   EC   0.65775  0.22326  0.59225
EC65   EC   0.65775  0.52674  0.15775
EC66   EC   0.65775  0.59225  0.22326
EC67   EC   0.65775  0.65775  0.02674
EC68   EC   0.65775  0.72326  0.09225
EC69   EC   0.72326  0.09225  0.65775
EC70   EC   0.72326  0.15775  0.59225
EC71   EC   0.72326  0.59225  0.15775
EC72   EC   0.72326  0.65775  0.09225
EC73   EC   0.77674  0.34225  0.40775
EC74   EC   0.77674  0.40775  0.34225
EC75   EC   0.77674  0.84225  0.90775
EC76   EC   0.77674  0.90775  0.84225
EC77   EC   0.84225  0.27674  0.40775
EC78   EC   0.84225  0.34225  0.47326
EC79   EC   0.84225  0.40775  0.27674
EC80   EC   0.84225  0.47326  0.34225
EC81   EC   0.84225  0.77674  0.90775
EC82   EC   0.84225  0.84225  0.97326
EC83   EC   0.84225  0.90775  0.77674
EC84   EC   0.84225  0.97326  0.84225
EC85   EC   0.90775  0.27674  0.34225
EC86   EC   0.90775  0.34225  0.27674
EC87   EC   0.90775  0.40775  0.47326
EC88   EC   0.90775  0.47326  0.40775
EC89   EC   0.90775  0.77674  0.84225
EC90   EC   0.90775  0.84225  0.77674
EC91   EC   0.90775  0.90775  0.97326
EC92   EC   0.90775  0.97326  0.90775
EC93   EC   0.97326  0.34225  0.34225
EC94   EC   0.97326  0.40775  0.40775
EC95   EC   0.97326  0.84225  0.84225
EC96   EC   0.97326  0.90775  0.90775
E1    E   0.00000  0.00000  0.00000
E2    E   0.00000  0.25000  0.25000
E3    E   0.00000  0.50000  0.50000
E4    E   0.00000  0.75000  0.75000
E5    E   0.02674  0.05949  0.05949
E6    E   0.02674  0.12500  0.12500
E7    E   0.02674  0.19051  0.19051
E8    E   0.02674  0.55949  0.55949
E9    E   0.02674  0.62500  0.62500
E10   E   0.02674  0.69051  0.69051
E11   E   0.05949  0.02674  0.05949
E12   E   0.05949  0.05949  0.02674
E13   E   0.05949  0.05949  0.09225
E14   E   0.05949  0.09225  0.05949
E15   E   0.05949  0.15775  0.19051
E16   E   0.05949  0.19051  0.15775
E17   E   0.05949  0.19051  0.22326
E18   E   0.05949  0.22326  0.19051
E19   E   0.05949  0.52674  0.55949
E20   E   0.05949  0.55949  0.52674
E21   E   0.05949  0.55949  0.59225
E22   E   0.05949  0.59225  0.55949
E23   E   0.05949  0.65775  0.69051
E24   E   0.05949  0.69051  0.65775
E25   E   0.05949  0.69051  0.72326
E26   E   0.05949  0.72326  0.69051
E27   E   0.09225  0.05949  0.05949
E28   E   0.09225  0.19051  0.19051
E29   E   0.09225  0.55949  0.55949
E30   E   0.09225  0.69051  0.69051
E31   E   0.12500  0.02674  0.12500
E32   E   0.12500  0.12500  0.02674
E33   E   0.12500  0.12500  0.22326
E34   E   0.12500  0.22326  0.12500
E35   E   0.12500  0.52674  0.62500
E36   E   0.12500  0.62500  0.52674
E37   E   0.12500  0.62500  0.72326
E38   E   0.12500  0.72326  0.62500
E39   E   0.15775  0.05949  0.19051
E40   E   0.15775  0.19051  0.05949
E41   E   0.15775  0.55949  0.69051
E42   E   0.15775  0.69051  0.55949
E43   E   0.19051  0.02674  0.19051
E44   E   0.19051  0.05949  0.15775
E45   E   0.19051  0.05949  0.22326
E46   E   0.19051  0.09225  0.19051
E47   E   0.19051  0.15775  0.05949
E48   E   0.19051  0.19051  0.02674
E49   E   0.19051  0.19051  0.09225
E50   E   0.19051  0.22326  0.05949
E51   E   0.19051  0.52674  0.69051
E52   E   0.19051  0.55949  0.65775
E53   E   0.19051  0.55949  0.72326
E54   E   0.19051  0.59225  0.69051
E55   E   0.19051  0.65775  0.55949
E56   E   0.19051  0.69051  0.52674
E57   E   0.19051  0.69051  0.59225
E58   E   0.19051  0.72326  0.55949
E59   E   0.22326  0.05949  0.19051
E60   E   0.22326  0.12500  0.12500
E61   E   0.22326  0.19051  0.05949
E62   E   0.22326  0.55949  0.69051
E63   E   0.22326  0.62500  0.62500
E64   E   0.22326  0.69051  0.55949
E65   E   0.25000  0.00000  0.25000
E66   E   0.25000  0.25000  0.00000
E67   E   0.25000  0.50000  0.75000
E68   E   0.25000  0.75000  0.50000
E69   E   0.27674  0.30949  0.94051
E70   E   0.27674  0.37500  0.87500
E71   E   0.27674  0.44051  0.80949
E72   E   0.27674  0.80949  0.44051
E73   E   0.27674  0.87500  0.37500
E74   E   0.27674  0.94051  0.30949
E75   E   0.30949  0.27674  0.94051
E76   E   0.30949  0.30949  0.90775
E77   E   0.30949  0.30949  0.97326
E78   E   0.30949  0.34225  0.94051
E79   E   0.30949  0.40775  0.80949
E80   E   0.30949  0.44051  0.77674
E81   E   0.30949  0.44051  0.84225
E82   E   0.30949  0.47326  0.80949
E83   E   0.30949  0.77674  0.44051
E84   E   0.30949  0.80949  0.40775
E85   E   0.30949  0.80949  0.47326
E86   E   0.30949  0.84225  0.44051
E87   E   0.30949  0.90775  0.30949
E88   E   0.30949  0.94051  0.27674
E89   E   0.30949  0.94051  0.34225
E90   E   0.30949  0.97326  0.30949
E91   E   0.34225  0.30949  0.94051
E92   E   0.34225  0.44051  0.80949
E93   E   0.34225  0.80949  0.44051
E94   E   0.34225  0.94051  0.30949
E95   E   0.37500  0.27674  0.87500
E96   E   0.37500  0.37500  0.77674
E97   E   0.37500  0.37500  0.97326
E98   E   0.37500  0.47326  0.87500
E99   E   0.37500  0.77674  0.37500
E100  E   0.37500  0.87500  0.27674
E101  E   0.37500  0.87500  0.47326
E102  E   0.37500  0.97326  0.37500
E103  E   0.40775  0.30949  0.80949
E104  E   0.40775  0.44051  0.94051
E105  E   0.40775  0.80949  0.30949
E106  E   0.40775  0.94051  0.44051
E107  E   0.44051  0.27674  0.80949
E108  E   0.44051  0.30949  0.77674
E109  E   0.44051  0.30949  0.84225
E110  E   0.44051  0.34225  0.80949
E111  E   0.44051  0.40775  0.94051
E112  E   0.44051  0.44051  0.90775
E113  E   0.44051  0.44051  0.97326
E114  E   0.44051  0.47326  0.94051
E115  E   0.44051  0.77674  0.30949
E116  E   0.44051  0.80949  0.27674
E117  E   0.44051  0.80949  0.34225
E118  E   0.44051  0.84225  0.30949
E119  E   0.44051  0.90775  0.44051
E120  E   0.44051  0.94051  0.40775
E121  E   0.44051  0.94051  0.47326
E122  E   0.44051  0.97326  0.44051
E123  E   0.47326  0.30949  0.80949
E124  E   0.47326  0.37500  0.87500
E125  E   0.47326  0.44051  0.94051
E126  E   0.47326  0.80949  0.30949
E127  E   0.47326  0.87500  0.37500
E128  E   0.47326  0.94051  0.44051
E129  E   0.50000  0.00000  0.50000
E130  E   0.50000  0.25000  0.75000
E131  E   0.50000  0.50000  0.00000
E132  E   0.50000  0.75000  0.25000
E133  E   0.52674  0.05949  0.55949
E134  E   0.52674  0.12500  0.62500
E135  E   0.52674  0.19051  0.69051
E136  E   0.52674  0.55949  0.05949
E137  E   0.52674  0.62500  0.12500
E138  E   0.52674  0.69051  0.19051
E139  E   0.55949  0.02674  0.55949
E140  E   0.55949  0.05949  0.52674
E141  E   0.55949  0.05949  0.59225
E142  E   0.55949  0.09225  0.55949
E143  E   0.55949  0.15775  0.69051
E144  E   0.55949  0.19051  0.65775
E145  E   0.55949  0.19051  0.72326
E146  E   0.55949  0.22326  0.69051
E147  E   0.55949  0.52674  0.05949
E148  E   0.55949  0.55949  0.02674
E149  E   0.55949  0.55949  0.09225
E150  E   0.55949  0.59225  0.05949
E151  E   0.55949  0.65775  0.19051
E152  E   0.55949  0.69051  0.15775
E153  E   0.55949  0.69051  0.22326
E154  E   0.55949  0.72326  0.19051
E155  E   0.59225  0.05949  0.55949
E156  E   0.59225  0.19051  0.69051
E157  E   0.59225  0.55949  0.05949
E158  E   0.59225  0.69051  0.19051
E159  E   0.62500  0.02674  0.62500
E160  E   0.62500  0.12500  0.52674
E161  E   0.62500  0.12500  0.72326
E162  E   0.62500  0.22326  0.62500
E163  E   0.62500  0.52674  0.12500
E164  E   0.62500  0.62500  0.02674
E165  E   0.62500  0.62500  0.22326
E166  E   0.62500  0.72326  0.12500
E167  E   0.65775  0.05949  0.69051
E168  E   0.65775  0.19051  0.55949
E169  E   0.65775  0.55949  0.19051
E170  E   0.65775  0.69051  0.05949
E171  E   0.69051  0.02674  0.69051
E172  E   0.69051  0.05949  0.65775
E173  E   0.69051  0.05949  0.72326
E174  E   0.69051  0.09225  0.69051
E175  E   0.69051  0.15775  0.55949
E176  E   0.69051  0.19051  0.52674
E177  E   0.69051  0.19051  0.59225
E178  E   0.69051  0.22326  0.55949
E179  E   0.69051  0.52674  0.19051
E180  E   0.69051  0.55949  0.15775
E181  E   0.69051  0.55949  0.22326
E182  E   0.69051  0.59225  0.19051
E183  E   0.69051  0.65775  0.05949
E184  E   0.69051  0.69051  0.02674
E185  E   0.69051  0.69051  0.09225
E186  E   0.69051  0.72326  0.05949
E187  E   0.72326  0.05949  0.69051
E188  E   0.72326  0.12500  0.62500
E189  E   0.72326  0.19051  0.55949
E190  E   0.72326  0.55949  0.19051
E191  E   0.72326  0.62500  0.12500
E192  E   0.72326  0.69051  0.05949
E193  E   0.75000  0.00000  0.75000
E194  E   0.75000  0.25000  0.50000
E195  E   0.75000  0.50000  0.25000
E196  E   0.75000  0.75000  0.00000
E197  E   0.77674  0.30949  0.44051
E198  E   0.77674  0.37500  0.37500
E199  E   0.77674  0.44051  0.30949
E200  E   0.77674  0.80949  0.94051
E201  E   0.77674  0.87500  0.87500
E202  E   0.77674  0.94051  0.80949
E203  E   0.80949  0.27674  0.44051
E204  E   0.80949  0.30949  0.40775
E205  E   0.80949  0.30949  0.47326
E206  E   0.80949  0.34225  0.44051
E207  E   0.80949  0.40775  0.30949
E208  E   0.80949  0.44051  0.27674
E209  E   0.80949  0.44051  0.34225
E210  E   0.80949  0.47326  0.30949
E211  E   0.80949  0.77674  0.94051
E212  E   0.80949  0.80949  0.90775
E213  E   0.80949  0.80949  0.97326
E214  E   0.80949  0.84225  0.94051
E215  E   0.80949  0.90775  0.80949
E216  E   0.80949  0.94051  0.77674
E217  E   0.80949  0.94051  0.84225
E218  E   0.80949  0.97326  0.80949
E219  E   0.84225  0.30949  0.44051
E220  E   0.84225  0.44051  0.30949
E221  E   0.84225  0.80949  0.94051
E222  E   0.84225  0.94051  0.80949
E223  E   0.87500  0.27674  0.37500
E224  E   0.87500  0.37500  0.27674
E225  E   0.87500  0.37500  0.47326
E226  E   0.87500  0.47326  0.37500
E227  E   0.87500  0.77674  0.87500
E228  E   0.87500  0.87500  0.77674
E229  E   0.87500  0.87500  0.97326
E230  E   0.87500  0.97326  0.87500
E231  E   0.90775  0.30949  0.30949
E232  E   0.90775  0.44051  0.44051
E233  E   0.90775  0.80949  0.80949
E234  E   0.90775  0.94051  0.94051
E235  E   0.94051  0.27674  0.30949
E236  E   0.94051  0.30949  0.27674
E237  E   0.94051  0.30949  0.34225
E238  E   0.94051  0.34225  0.30949
E239  E   0.94051  0.40775  0.44051
E240  E   0.94051  0.44051  0.40775
E241  E   0.94051  0.44051  0.47326
E242  E   0.94051  0.47326  0.44051
E243  E   0.94051  0.77674  0.80949
E244  E   0.94051  0.80949  0.77674
E245  E   0.94051  0.80949  0.84225
E246  E   0.94051  0.84225  0.80949
E247  E   0.94051  0.90775  0.94051
E248  E   0.94051  0.94051  0.90775
E249  E   0.94051  0.94051  0.97326
E250  E   0.94051  0.97326  0.94051
E251  E   0.97326  0.30949  0.30949
E252  E   0.97326  0.37500  0.37500
E253  E   0.97326  0.44051  0.44051
E254  E   0.97326  0.80949  0.80949
E255  E   0.97326  0.87500  0.87500
E256  E   0.97326  0.94051  0.94051
loop_
