data_dia-a_Fd-3m:2  hall_number: 526, V_con: 4
_audit_creation_date              2025-03-06
_audit_creation_method            'MOFbuilder_1.0'
_symmetry_space_group_name_H-M    'P1'
_symmetry_Int_Tables_number       1
_symmetry_cell_setting            triclinic
loop_
_symmetry_equiv_pos_as_xyz
  x,y,z
_cell_length_a                    51.37819999999999
_cell_length_b                    51.37819999999999
_cell_length_c                    51.37819999999999
_cell_angle_alpha                 90.0
_cell_angle_beta                  90.0
_cell_angle_gamma                 90.0
loop_
_atom_site_label
_atom_site_type_symbol
_atom_site_fract_x
_atom_site_fract_y
_atom_site_fract_z
V1    V   0.05619  0.05619  0.55619
V2    V   0.05619  0.19381  0.69381
V3    V   0.05619  0.55619  0.05619
V4    V   0.05619  0.69381  0.19381
V5    V   0.05619  0.05619  0.55619
V6    V   0.05619  0.05619  0.55619
V7    V   0.05619  0.19381  0.69381
V8    V   0.05619  0.19381  0.69381
V9    V   0.05619  0.55619  0.05619
V10   V   0.05619  0.55619  0.05619
V11   V   0.05619  0.69381  0.19381
V12   V   0.05619  0.69381  0.19381
V13   V   0.19381  0.05619  0.69381
V14   V   0.19381  0.05619  0.69381
V15   V   0.19381  0.19381  0.55619
V16   V   0.19381  0.19381  0.55619
V17   V   0.19381  0.55619  0.19381
V18   V   0.19381  0.55619  0.19381
V19   V   0.19381  0.69381  0.05619
V20   V   0.19381  0.69381  0.05619
V21   V   0.19381  0.05619  0.69381
V22   V   0.19381  0.19381  0.55619
V23   V   0.19381  0.55619  0.19381
V24   V   0.19381  0.69381  0.05619
V25   V   0.30619  0.30619  0.44381
V26   V   0.30619  0.44381  0.30619
V27   V   0.30619  0.80619  0.94381
V28   V   0.30619  0.94381  0.80619
V29   V   0.30619  0.30619  0.44381
V30   V   0.30619  0.30619  0.44381
V31   V   0.30619  0.44381  0.30619
V32   V   0.30619  0.44381  0.30619
V33   V   0.30619  0.80619  0.94381
V34   V   0.30619  0.94381  0.80619
V35   V   0.44381  0.30619  0.30619
V36   V   0.44381  0.30619  0.30619
V37   V   0.44381  0.44381  0.44381
V38   V   0.44381  0.44381  0.44381
V39   V   0.44381  0.80619  0.80619
V40   V   0.44381  0.94381  0.94381
V41   V   0.44381  0.30619  0.30619
V42   V   0.44381  0.44381  0.44381
V43   V   0.44381  0.80619  0.80619
V44   V   0.44381  0.94381  0.94381
V45   V   0.55619  0.05619  0.05619
V46   V   0.55619  0.05619  0.05619
V47   V   0.55619  0.05619  0.05619
V48   V   0.55619  0.19381  0.19381
V49   V   0.55619  0.19381  0.19381
V50   V   0.55619  0.19381  0.19381
V51   V   0.55619  0.55619  0.55619
V52   V   0.55619  0.69381  0.69381
V53   V   0.69381  0.05619  0.19381
V54   V   0.69381  0.05619  0.19381
V55   V   0.69381  0.05619  0.19381
V56   V   0.69381  0.19381  0.05619
V57   V   0.69381  0.19381  0.05619
V58   V   0.69381  0.19381  0.05619
V59   V   0.69381  0.55619  0.69381
V60   V   0.69381  0.69381  0.55619
V61   V   0.80619  0.30619  0.94381
V62   V   0.80619  0.30619  0.94381
V63   V   0.80619  0.44381  0.80619
V64   V   0.80619  0.44381  0.80619
V65   V   0.80619  0.80619  0.44381
V66   V   0.80619  0.80619  0.44381
V67   V   0.80619  0.94381  0.30619
V68   V   0.80619  0.94381  0.30619
V69   V   0.94381  0.30619  0.80619
V70   V   0.94381  0.30619  0.80619
V71   V   0.94381  0.44381  0.94381
V72   V   0.94381  0.44381  0.94381
V73   V   0.94381  0.80619  0.30619
V74   V   0.94381  0.80619  0.30619
V75   V   0.94381  0.94381  0.44381
V76   V   0.94381  0.94381  0.44381
E1    E   0.00000  0.00000  0.50000
E2    E   0.00000  0.25000  0.75000
E3    E   0.00000  0.50000  0.00000
E4    E   0.00000  0.75000  0.25000
E5    E   0.05619  0.12500  0.62500
E6    E   0.05619  0.62500  0.12500
E7    E   0.12500  0.05619  0.62500
E8    E   0.12500  0.12500  0.55619
E9    E   0.12500  0.12500  0.69381
E10   E   0.12500  0.19381  0.62500
E11   E   0.12500  0.55619  0.12500
E12   E   0.12500  0.62500  0.05619
E13   E   0.12500  0.62500  0.19381
E14   E   0.12500  0.69381  0.12500
E15   E   0.19381  0.12500  0.62500
E16   E   0.19381  0.62500  0.12500
E17   E   0.25000  0.00000  0.75000
E18   E   0.25000  0.25000  0.50000
E19   E   0.25000  0.50000  0.25000
E20   E   0.25000  0.75000  0.00000
E21   E   0.30619  0.37500  0.37500
E22   E   0.30619  0.87500  0.87500
E23   E   0.37500  0.30619  0.37500
E24   E   0.37500  0.37500  0.30619
E25   E   0.37500  0.37500  0.44381
E26   E   0.37500  0.44381  0.37500
E27   E   0.37500  0.80619  0.87500
E28   E   0.37500  0.87500  0.80619
E29   E   0.37500  0.87500  0.94381
E30   E   0.37500  0.94381  0.87500
E31   E   0.44381  0.37500  0.37500
E32   E   0.44381  0.87500  0.87500
E33   E   0.50000  0.00000  0.00000
E34   E   0.50000  0.25000  0.25000
E35   E   0.50000  0.50000  0.50000
E36   E   0.50000  0.75000  0.75000
E37   E   0.55619  0.12500  0.12500
E38   E   0.55619  0.62500  0.62500
E39   E   0.62500  0.05619  0.12500
E40   E   0.62500  0.12500  0.05619
E41   E   0.62500  0.12500  0.19381
E42   E   0.62500  0.19381  0.12500
E43   E   0.62500  0.55619  0.62500
E44   E   0.62500  0.62500  0.55619
E45   E   0.62500  0.62500  0.69381
E46   E   0.62500  0.69381  0.62500
E47   E   0.69381  0.12500  0.12500
E48   E   0.69381  0.62500  0.62500
E49   E   0.75000  0.00000  0.25000
E50   E   0.75000  0.25000  0.00000
E51   E   0.75000  0.50000  0.75000
E52   E   0.75000  0.75000  0.50000
E53   E   0.80619  0.37500  0.87500
E54   E   0.80619  0.87500  0.37500
E55   E   0.87500  0.30619  0.87500
E56   E   0.87500  0.37500  0.80619
E57   E   0.87500  0.37500  0.94381
E58   E   0.87500  0.44381  0.87500
E59   E   0.87500  0.80619  0.37500
E60   E   0.87500  0.87500  0.30619
E61   E   0.87500  0.87500  0.44381
E62   E   0.87500  0.94381  0.37500
E63   E   0.94381  0.37500  0.87500
E64   E   0.94381  0.87500  0.37500
loop_
