data_dme_C12/m1  hall_number: 71, V_con: 4, EC_con: 3
_audit_creation_date              2025-03-06
_audit_creation_method            'MOFbuilder_1.0'
_symmetry_space_group_name_H-M    'P1'
_symmetry_Int_Tables_number       1
_symmetry_cell_setting            triclinic
loop_
_symmetry_equiv_pos_as_xyz
  x,y,z
_cell_length_a                    37.494
_cell_length_b                    24.0006
_cell_length_c                    29.060899999999997
_cell_angle_alpha                 90.0
_cell_angle_beta                  109.08
_cell_angle_gamma                 90.0
loop_
_atom_site_label
_atom_site_type_symbol
_atom_site_fract_x
_atom_site_fract_y
_atom_site_fract_z
V1    V   0.11175  0.29167  0.44207
V2    V   0.11175  0.70833  0.55793
V3    V   0.38825  0.20833  0.05793
V4    V   0.38825  0.79167  0.94207
V5    V   0.61175  0.20833  0.05793
V6    V   0.61175  0.79167  0.94207
V7    V   0.88825  0.29167  0.44207
V8    V   0.88825  0.70833  0.55793
EC1    EC   0.04583  0.00000  0.18205
EC2    EC   0.04583  0.00000  0.81795
EC3    EC   0.45417  0.50000  0.31795
EC4    EC   0.45417  0.50000  0.68205
EC5    EC   0.54583  0.50000  0.31795
EC6    EC   0.54583  0.50000  0.68205
EC7    EC   0.95417  0.00000  0.18205
EC8    EC   0.95417  0.00000  0.81795
E1    E   0.00000  0.00000  0.00000
E2    E   0.00000  0.29167  0.50000
E3    E   0.00000  0.70833  0.50000
E4    E   0.07879  0.14584  0.31206
E5    E   0.07879  0.85416  0.68794
E6    E   0.11175  0.50000  0.44207
E7    E   0.11175  0.50000  0.55793
E8    E   0.25000  0.25000  0.00000
E9    E   0.25000  0.25000  0.50000
E10   E   0.25000  0.75000  0.00000
E11   E   0.25000  0.75000  0.50000
E12   E   0.38825  0.00000  0.05793
E13   E   0.38825  0.00000  0.94207
E14   E   0.42121  0.35416  0.18794
E15   E   0.42121  0.64584  0.81206
E16   E   0.50000  0.20833  0.00000
E17   E   0.50000  0.50000  0.50000
E18   E   0.50000  0.79167  0.00000
E19   E   0.57879  0.35416  0.18794
E20   E   0.57879  0.64584  0.81206
E21   E   0.61175  0.00000  0.05793
E22   E   0.61175  0.00000  0.94207
E23   E   0.75000  0.25000  0.00000
E24   E   0.75000  0.25000  0.50000
E25   E   0.75000  0.75000  0.00000
E26   E   0.75000  0.75000  0.50000
E27   E   0.88825  0.50000  0.44207
E28   E   0.88825  0.50000  0.55793
E29   E   0.92121  0.14584  0.31206
E30   E   0.92121  0.85416  0.68794
loop_
