data_dum_P6/mmm  hall_number: 485, V_con: 4, EC_con: 3
_audit_creation_date              2025-03-06
_audit_creation_method            'MOFbuilder_1.0'
_symmetry_space_group_name_H-M    'P1'
_symmetry_Int_Tables_number       1
_symmetry_cell_setting            triclinic
loop_
_symmetry_equiv_pos_as_xyz
  x,y,z
_cell_length_a                    71.9614
_cell_length_b                    71.9614
_cell_length_c                    10.0
_cell_angle_alpha                 90.0
_cell_angle_beta                  90.0
_cell_angle_gamma                 120.0
loop_
_atom_site_label
_atom_site_type_symbol
_atom_site_fract_x
_atom_site_fract_y
_atom_site_fract_z
V1    V   0.08023  0.54011  0.00000
V2    V   0.08023  0.54012  0.00000
V3    V   0.45988  0.54011  0.00000
V4    V   0.45988  0.91977  0.00000
V5    V   0.45989  0.54012  0.00000
V6    V   0.45989  0.91977  0.00000
V7    V   0.54011  0.08023  0.00000
V8    V   0.54011  0.45988  0.00000
V9    V   0.54012  0.08023  0.00000
V10   V   0.54012  0.45989  0.00000
V11   V   0.91977  0.45988  0.00000
V12   V   0.91977  0.45989  0.00000
EC1    EC   0.24069  0.62034  0.00000
EC2    EC   0.24069  0.62035  0.00000
EC3    EC   0.37965  0.62034  0.00000
EC4    EC   0.37965  0.75931  0.00000
EC5    EC   0.37966  0.62035  0.00000
EC6    EC   0.37966  0.75931  0.00000
EC7    EC   0.62034  0.24069  0.00000
EC8    EC   0.62034  0.37965  0.00000
EC9    EC   0.62035  0.24069  0.00000
EC10   EC   0.62035  0.37966  0.00000
EC11   EC   0.75931  0.37965  0.00000
EC12   EC   0.75931  0.37966  0.00000
E1    E   0.00000  0.50000  0.00000
E2    E   0.08023  0.54011  0.50000
E3    E   0.08023  0.54012  0.50000
E4    E   0.16046  0.58023  0.00000
E5    E   0.31017  0.62035  0.00000
E6    E   0.31017  0.68982  0.00000
E7    E   0.31018  0.62035  0.00000
E8    E   0.31018  0.68983  0.00000
E9    E   0.37965  0.68982  0.00000
E10   E   0.37965  0.68983  0.00000
E11   E   0.41977  0.58023  0.00000
E12   E   0.41977  0.83954  0.00000
E13   E   0.41977  0.58023  0.00000
E14   E   0.41977  0.83954  0.00000
E15   E   0.45988  0.54011  0.50000
E16   E   0.45988  0.91977  0.50000
E17   E   0.45989  0.54012  0.50000
E18   E   0.45989  0.91977  0.50000
E19   E   0.50000  0.00000  0.00000
E20   E   0.50000  0.50000  0.00000
E21   E   0.54011  0.08023  0.50000
E22   E   0.54011  0.45988  0.50000
E23   E   0.54012  0.08023  0.50000
E24   E   0.54012  0.45989  0.50000
E25   E   0.58023  0.16046  0.00000
E26   E   0.58023  0.41977  0.00000
E27   E   0.58023  0.41977  0.00000
E28   E   0.62035  0.31017  0.00000
E29   E   0.62035  0.31018  0.00000
E30   E   0.68982  0.31017  0.00000
E31   E   0.68982  0.37965  0.00000
E32   E   0.68983  0.31018  0.00000
E33   E   0.68983  0.37965  0.00000
E34   E   0.83954  0.41977  0.00000
E35   E   0.83954  0.41977  0.00000
E36   E   0.91977  0.45988  0.50000
E37   E   0.91977  0.45989  0.50000
loop_
