data_ecl_I4/mmm  hall_number: 424, V_con: 8
_audit_creation_date              2025-03-06
_audit_creation_method            'MOFbuilder_1.0'
_symmetry_space_group_name_H-M    'P1'
_symmetry_Int_Tables_number       1
_symmetry_cell_setting            triclinic
loop_
_symmetry_equiv_pos_as_xyz
  x,y,z
_cell_length_a                    26.3894
_cell_length_b                    26.3894
_cell_length_c                    10.0001
_cell_angle_alpha                 90.0
_cell_angle_beta                  90.0
_cell_angle_gamma                 90.0
loop_
_atom_site_label
_atom_site_type_symbol
_atom_site_fract_x
_atom_site_fract_y
_atom_site_fract_z
V1    V   0.00000  0.26795  0.00000
V2    V   0.00000  0.73205  0.00000
V3    V   0.23205  0.50000  0.50000
V4    V   0.26795  0.00000  0.00000
V5    V   0.50000  0.23205  0.50000
V6    V   0.50000  0.76795  0.50000
V7    V   0.73205  0.00000  0.00000
V8    V   0.76795  0.50000  0.50000
E1    E   0.00000  0.26795  0.50000
E2    E   0.00000  0.73205  0.50000
E3    E   0.11603  0.38397  0.25000
E4    E   0.11603  0.38397  0.75000
E5    E   0.11603  0.61603  0.25000
E6    E   0.11603  0.61603  0.75000
E7    E   0.11603  0.38397  0.25000
E8    E   0.11603  0.38397  0.75000
E9    E   0.11603  0.61603  0.25000
E10   E   0.11603  0.61603  0.75000
E11   E   0.13397  0.13397  0.00000
E12   E   0.13397  0.86603  0.00000
E13   E   0.23205  0.50000  0.00000
E14   E   0.26795  0.00000  0.50000
E15   E   0.36603  0.36603  0.50000
E16   E   0.36603  0.63397  0.50000
E17   E   0.38397  0.11603  0.25000
E18   E   0.38397  0.11603  0.75000
E19   E   0.38397  0.88397  0.25000
E20   E   0.38397  0.88397  0.75000
E21   E   0.38397  0.11603  0.25000
E22   E   0.38397  0.11603  0.75000
E23   E   0.38397  0.88397  0.25000
E24   E   0.38397  0.88397  0.75000
E25   E   0.50000  0.23205  0.00000
E26   E   0.50000  0.76795  0.00000
E27   E   0.61603  0.11603  0.25000
E28   E   0.61603  0.11603  0.75000
E29   E   0.61603  0.88397  0.25000
E30   E   0.61603  0.88397  0.75000
E31   E   0.61603  0.11603  0.25000
E32   E   0.61603  0.11603  0.75000
E33   E   0.61603  0.88397  0.25000
E34   E   0.61603  0.88397  0.75000
E35   E   0.63397  0.36603  0.50000
E36   E   0.63397  0.63397  0.50000
E37   E   0.73205  0.00000  0.50000
E38   E   0.76795  0.50000  0.00000
E39   E   0.86603  0.13397  0.00000
E40   E   0.86603  0.86603  0.00000
E41   E   0.88397  0.38397  0.25000
E42   E   0.88397  0.38397  0.75000
E43   E   0.88397  0.61603  0.25000
E44   E   0.88397  0.61603  0.75000
E45   E   0.88397  0.38397  0.25000
E46   E   0.88397  0.38397  0.75000
E47   E   0.88397  0.61603  0.25000
E48   E   0.88397  0.61603  0.75000
loop_
