data_ecp_P63/m  hall_number: 470, V_con: 8
_audit_creation_date              2025-03-06
_audit_creation_method            'MOFbuilder_1.0'
_symmetry_space_group_name_H-M    'P1'
_symmetry_Int_Tables_number       1
_symmetry_cell_setting            triclinic
loop_
_symmetry_equiv_pos_as_xyz
  x,y,z
_cell_length_a                    21.9425
_cell_length_b                    21.9425
_cell_length_c                    12.741
_cell_angle_alpha                 90.0
_cell_angle_beta                  90.0
_cell_angle_gamma                 120.0
loop_
_atom_site_label
_atom_site_type_symbol
_atom_site_fract_x
_atom_site_fract_y
_atom_site_fract_z
V1    V   0.08990  0.70239  0.75000
V2    V   0.29761  0.38751  0.75000
V3    V   0.38751  0.08990  0.25000
V4    V   0.61249  0.91010  0.75000
V5    V   0.70239  0.61249  0.25000
V6    V   0.91010  0.29761  0.25000
E1    E   0.00000  0.50000  0.00000
E2    E   0.00000  0.50000  0.50000
E3    E   0.10385  0.34255  0.00000
E4    E   0.10385  0.34255  0.50000
E5    E   0.19375  0.54495  0.75000
E6    E   0.23870  0.89615  0.00000
E7    E   0.23870  0.89615  0.50000
E8    E   0.34255  0.23870  0.00000
E9    E   0.34255  0.23870  0.50000
E10   E   0.35120  0.80625  0.75000
E11   E   0.45505  0.64880  0.75000
E12   E   0.50000  0.00000  0.00000
E13   E   0.50000  0.00000  0.50000
E14   E   0.50000  0.50000  0.00000
E15   E   0.50000  0.50000  0.50000
E16   E   0.54495  0.35120  0.25000
E17   E   0.64880  0.19375  0.25000
E18   E   0.65745  0.76130  0.00000
E19   E   0.65745  0.76130  0.50000
E20   E   0.76130  0.10385  0.00000
E21   E   0.76130  0.10385  0.50000
E22   E   0.80625  0.45505  0.25000
E23   E   0.89615  0.65745  0.00000
E24   E   0.89615  0.65745  0.50000
loop_
