data_ect_P-3c1  hall_number: 457, V_con: 8
_audit_creation_date              2025-03-06
_audit_creation_method            'MOFbuilder_1.0'
_symmetry_space_group_name_H-M    'P1'
_symmetry_Int_Tables_number       1
_symmetry_cell_setting            triclinic
loop_
_symmetry_equiv_pos_as_xyz
  x,y,z
_cell_length_a                    26.227800000000002
_cell_length_b                    26.227800000000002
_cell_length_c                    18.4893
_cell_angle_alpha                 90.0
_cell_angle_beta                  90.0
_cell_angle_gamma                 120.0
loop_
_atom_site_label
_atom_site_type_symbol
_atom_site_fract_x
_atom_site_fract_y
_atom_site_fract_z
V1    V   0.14068  0.42674  0.95799
V2    V   0.14068  0.71394  0.45799
V3    V   0.28606  0.42674  0.45799
V4    V   0.28606  0.85932  0.95799
V5    V   0.42674  0.14068  0.54201
V6    V   0.42674  0.28606  0.04201
V7    V   0.57326  0.71394  0.95799
V8    V   0.57326  0.85932  0.45799
V9    V   0.71394  0.14068  0.04201
V10   V   0.71394  0.57326  0.54201
V11   V   0.85932  0.28606  0.54201
V12   V   0.85932  0.57326  0.04201
E1    E   0.00000  0.35640  0.75000
E2    E   0.00000  0.50000  0.00000
E3    E   0.00000  0.50000  0.50000
E4    E   0.00000  0.64360  0.25000
E5    E   0.07269  0.35640  0.50000
E6    E   0.07269  0.71629  0.00000
E7    E   0.21337  0.42674  0.20799
E8    E   0.21337  0.42674  0.70799
E9    E   0.21337  0.57034  0.45799
E10   E   0.21337  0.64303  0.95799
E11   E   0.21337  0.78663  0.20799
E12   E   0.21337  0.78663  0.70799
E13   E   0.28371  0.35640  0.00000
E14   E   0.28371  0.92731  0.50000
E15   E   0.35640  0.00000  0.75000
E16   E   0.35640  0.07269  0.00000
E17   E   0.35640  0.28371  0.50000
E18   E   0.35640  0.35640  0.25000
E19   E   0.35697  0.57034  0.95799
E20   E   0.35697  0.78663  0.45799
E21   E   0.42674  0.21337  0.29201
E22   E   0.42674  0.21337  0.79201
E23   E   0.42966  0.64303  0.45799
E24   E   0.42966  0.78663  0.95799
E25   E   0.50000  0.00000  0.00000
E26   E   0.50000  0.00000  0.50000
E27   E   0.50000  0.50000  0.00000
E28   E   0.50000  0.50000  0.50000
E29   E   0.57034  0.21337  0.04201
E30   E   0.57034  0.35697  0.54201
E31   E   0.57326  0.78663  0.20799
E32   E   0.57326  0.78663  0.70799
E33   E   0.64303  0.21337  0.54201
E34   E   0.64303  0.42966  0.04201
E35   E   0.64360  0.00000  0.25000
E36   E   0.64360  0.64360  0.75000
E37   E   0.64360  0.71629  0.50000
E38   E   0.64360  0.92731  0.00000
E39   E   0.71629  0.07269  0.50000
E40   E   0.71629  0.64360  0.00000
E41   E   0.78663  0.21337  0.29201
E42   E   0.78663  0.21337  0.79201
E43   E   0.78663  0.35697  0.04201
E44   E   0.78663  0.42966  0.54201
E45   E   0.78663  0.57326  0.29201
E46   E   0.78663  0.57326  0.79201
E47   E   0.92731  0.28371  0.00000
E48   E   0.92731  0.64360  0.50000
loop_
