data_ecv_Fddd:2  hall_number: 336, V_con: 8
_audit_creation_date              2025-03-06
_audit_creation_method            'MOFbuilder_1.0'
_symmetry_space_group_name_H-M    'P1'
_symmetry_Int_Tables_number       1
_symmetry_cell_setting            triclinic
loop_
_symmetry_equiv_pos_as_xyz
  x,y,z
_cell_length_a                    12.716099999999999
_cell_length_b                    15.437000000000001
_cell_length_c                    65.5152
_cell_angle_alpha                 90.0
_cell_angle_beta                  90.0
_cell_angle_gamma                 90.0
loop_
_atom_site_label
_atom_site_type_symbol
_atom_site_fract_x
_atom_site_fract_y
_atom_site_fract_z
V1    V   0.12500  0.12500  0.43391
V2    V   0.12500  0.12500  0.81609
V3    V   0.12500  0.62500  0.31609
V4    V   0.12500  0.62500  0.93391
V5    V   0.37500  0.37500  0.18391
V6    V   0.37500  0.37500  0.56609
V7    V   0.37500  0.87500  0.06609
V8    V   0.37500  0.87500  0.68391
V9    V   0.62500  0.12500  0.31609
V10   V   0.62500  0.12500  0.93391
V11   V   0.62500  0.62500  0.43391
V12   V   0.62500  0.62500  0.81609
V13   V   0.87500  0.37500  0.06609
V14   V   0.87500  0.37500  0.68391
V15   V   0.87500  0.87500  0.18391
V16   V   0.87500  0.87500  0.56609
E1    E   0.00000  0.00000  0.50000
E2    E   0.00000  0.25000  0.75000
E3    E   0.00000  0.50000  0.00000
E4    E   0.00000  0.75000  0.25000
E5    E   0.12500  0.12500  0.06609
E6    E   0.12500  0.12500  0.18391
E7    E   0.12500  0.12500  0.56609
E8    E   0.12500  0.12500  0.68391
E9    E   0.12500  0.37500  0.12500
E10   E   0.12500  0.37500  0.62500
E11   E   0.12500  0.62500  0.06609
E12   E   0.12500  0.62500  0.18391
E13   E   0.12500  0.62500  0.56609
E14   E   0.12500  0.62500  0.68391
E15   E   0.12500  0.87500  0.12500
E16   E   0.12500  0.87500  0.62500
E17   E   0.25000  0.00000  0.75000
E18   E   0.25000  0.25000  0.50000
E19   E   0.25000  0.50000  0.25000
E20   E   0.25000  0.75000  0.00000
E21   E   0.37500  0.12500  0.37500
E22   E   0.37500  0.12500  0.87500
E23   E   0.37500  0.37500  0.31609
E24   E   0.37500  0.37500  0.43391
E25   E   0.37500  0.37500  0.81609
E26   E   0.37500  0.37500  0.93391
E27   E   0.37500  0.62500  0.37500
E28   E   0.37500  0.62500  0.87500
E29   E   0.37500  0.87500  0.31609
E30   E   0.37500  0.87500  0.43391
E31   E   0.37500  0.87500  0.81609
E32   E   0.37500  0.87500  0.93391
E33   E   0.50000  0.00000  0.00000
E34   E   0.50000  0.25000  0.25000
E35   E   0.50000  0.50000  0.50000
E36   E   0.50000  0.75000  0.75000
E37   E   0.62500  0.12500  0.06609
E38   E   0.62500  0.12500  0.18391
E39   E   0.62500  0.12500  0.56609
E40   E   0.62500  0.12500  0.68391
E41   E   0.62500  0.37500  0.12500
E42   E   0.62500  0.37500  0.62500
E43   E   0.62500  0.62500  0.06609
E44   E   0.62500  0.62500  0.18391
E45   E   0.62500  0.62500  0.56609
E46   E   0.62500  0.62500  0.68391
E47   E   0.62500  0.87500  0.12500
E48   E   0.62500  0.87500  0.62500
E49   E   0.75000  0.00000  0.25000
E50   E   0.75000  0.25000  0.00000
E51   E   0.75000  0.50000  0.75000
E52   E   0.75000  0.75000  0.50000
E53   E   0.87500  0.12500  0.37500
E54   E   0.87500  0.12500  0.87500
E55   E   0.87500  0.37500  0.31609
E56   E   0.87500  0.37500  0.43391
E57   E   0.87500  0.37500  0.81609
E58   E   0.87500  0.37500  0.93391
E59   E   0.87500  0.62500  0.37500
E60   E   0.87500  0.62500  0.87500
E61   E   0.87500  0.87500  0.31609
E62   E   0.87500  0.87500  0.43391
E63   E   0.87500  0.87500  0.81609
E64   E   0.87500  0.87500  0.93391
loop_
