data_ele_Fdd2  hall_number: 212, V_con: 11
_audit_creation_date              2025-03-06
_audit_creation_method            'MOFbuilder_1.0'
_symmetry_space_group_name_H-M    'P1'
_symmetry_Int_Tables_number       1
_symmetry_cell_setting            triclinic
loop_
_symmetry_equiv_pos_as_xyz
  x,y,z
_cell_length_a                    67.30109999999999
_cell_length_b                    17.3204
_cell_length_c                    10.0
_cell_angle_alpha                 90.0
_cell_angle_beta                  90.0
_cell_angle_gamma                 90.0
loop_
_atom_site_label
_atom_site_type_symbol
_atom_site_fract_x
_atom_site_fract_y
_atom_site_fract_z
V1    V   0.06066  0.16666  0.50000
V2    V   0.06066  0.66666  0.00000
V3    V   0.18934  0.41666  0.75000
V4    V   0.18934  0.91666  0.25000
V5    V   0.31066  0.08334  0.75000
V6    V   0.31066  0.58334  0.25000
V7    V   0.43934  0.33334  0.50000
V8    V   0.43934  0.83334  0.00000
V9    V   0.56066  0.16666  0.00000
V10   V   0.56066  0.66666  0.50000
V11   V   0.68934  0.41666  0.25000
V12   V   0.68934  0.91666  0.75000
V13   V   0.81066  0.08334  0.25000
V14   V   0.81066  0.58334  0.75000
V15   V   0.93934  0.33334  0.00000
V16   V   0.93934  0.83334  0.50000
E1    E   0.00000  0.00000  0.50000
E2    E   0.00000  0.25000  0.25000
E3    E   0.00000  0.25000  0.75000
E4    E   0.00000  0.50000  0.00000
E5    E   0.00000  0.75000  0.25000
E6    E   0.00000  0.75000  0.75000
E7    E   0.06066  0.16666  0.00000
E8    E   0.06066  0.41666  0.25000
E9    E   0.06066  0.41666  0.75000
E10   E   0.06066  0.66666  0.50000
E11   E   0.06066  0.91666  0.25000
E12   E   0.06066  0.91666  0.75000
E13   E   0.12500  0.04166  0.37500
E14   E   0.12500  0.29166  0.62500
E15   E   0.12500  0.54166  0.87500
E16   E   0.12500  0.79166  0.12500
E17   E   0.18934  0.16666  0.00000
E18   E   0.18934  0.16666  0.50000
E19   E   0.18934  0.41666  0.25000
E20   E   0.18934  0.66666  0.00000
E21   E   0.18934  0.66666  0.50000
E22   E   0.18934  0.91666  0.75000
E23   E   0.25000  0.00000  0.00000
E24   E   0.25000  0.00000  0.50000
E25   E   0.25000  0.25000  0.75000
E26   E   0.25000  0.50000  0.00000
E27   E   0.25000  0.50000  0.50000
E28   E   0.25000  0.75000  0.25000
E29   E   0.31066  0.08334  0.25000
E30   E   0.31066  0.33334  0.00000
E31   E   0.31066  0.33334  0.50000
E32   E   0.31066  0.58334  0.75000
E33   E   0.31066  0.83334  0.00000
E34   E   0.31066  0.83334  0.50000
E35   E   0.37500  0.20834  0.62500
E36   E   0.37500  0.45834  0.37500
E37   E   0.37500  0.70834  0.12500
E38   E   0.37500  0.95834  0.87500
E39   E   0.43934  0.08334  0.25000
E40   E   0.43934  0.08334  0.75000
E41   E   0.43934  0.33334  0.00000
E42   E   0.43934  0.58334  0.25000
E43   E   0.43934  0.58334  0.75000
E44   E   0.43934  0.83334  0.50000
E45   E   0.50000  0.00000  0.00000
E46   E   0.50000  0.25000  0.25000
E47   E   0.50000  0.25000  0.75000
E48   E   0.50000  0.50000  0.50000
E49   E   0.50000  0.75000  0.25000
E50   E   0.50000  0.75000  0.75000
E51   E   0.56066  0.16666  0.50000
E52   E   0.56066  0.41666  0.25000
E53   E   0.56066  0.41666  0.75000
E54   E   0.56066  0.66666  0.00000
E55   E   0.56066  0.91666  0.25000
E56   E   0.56066  0.91666  0.75000
E57   E   0.62500  0.04166  0.87500
E58   E   0.62500  0.29166  0.12500
E59   E   0.62500  0.54166  0.37500
E60   E   0.62500  0.79166  0.62500
E61   E   0.68934  0.16666  0.00000
E62   E   0.68934  0.16666  0.50000
E63   E   0.68934  0.41666  0.75000
E64   E   0.68934  0.66666  0.00000
E65   E   0.68934  0.66666  0.50000
E66   E   0.68934  0.91666  0.25000
E67   E   0.75000  0.00000  0.00000
E68   E   0.75000  0.00000  0.50000
E69   E   0.75000  0.25000  0.25000
E70   E   0.75000  0.50000  0.00000
E71   E   0.75000  0.50000  0.50000
E72   E   0.75000  0.75000  0.75000
E73   E   0.81066  0.08334  0.75000
E74   E   0.81066  0.33334  0.00000
E75   E   0.81066  0.33334  0.50000
E76   E   0.81066  0.58334  0.25000
E77   E   0.81066  0.83334  0.00000
E78   E   0.81066  0.83334  0.50000
E79   E   0.87500  0.20834  0.12500
E80   E   0.87500  0.45834  0.87500
E81   E   0.87500  0.70834  0.62500
E82   E   0.87500  0.95834  0.37500
E83   E   0.93934  0.08334  0.25000
E84   E   0.93934  0.08334  0.75000
E85   E   0.93934  0.33334  0.50000
E86   E   0.93934  0.58334  0.25000
E87   E   0.93934  0.58334  0.75000
E88   E   0.93934  0.83334  0.00000
loop_
