data_elf_P6122  hall_number: 472, V_con: 11
_audit_creation_date              2025-03-06
_audit_creation_method            'MOFbuilder_1.0'
_symmetry_space_group_name_H-M    'P1'
_symmetry_Int_Tables_number       1
_symmetry_cell_setting            triclinic
loop_
_symmetry_equiv_pos_as_xyz
  x,y,z
_cell_length_a                    10.0
_cell_length_b                    10.0
_cell_length_c                    100.9514
_cell_angle_alpha                 90.0
_cell_angle_beta                  90.0
_cell_angle_gamma                 120.0
loop_
_atom_site_label
_atom_site_type_symbol
_atom_site_fract_x
_atom_site_fract_y
_atom_site_fract_z
V1    V   0.16665  0.33333  0.04044
V2    V   0.16665  0.83332  0.12623
V3    V   0.16668  0.33333  0.45956
V4    V   0.16668  0.83335  0.70711
V5    V   0.33333  0.16665  0.29289
V6    V   0.33333  0.16668  0.87377
V7    V   0.66667  0.83332  0.37377
V8    V   0.66667  0.83335  0.79289
V9    V   0.83332  0.16665  0.20711
V10   V   0.83332  0.66667  0.95956
V11   V   0.83335  0.16668  0.62623
V12   V   0.83335  0.66667  0.54044
E1    E   0.00000  0.00002  0.83333
E2    E   0.00000  0.99998  0.33333
E3    E   0.00002  0.00000  0.50000
E4    E   0.00002  0.00002  0.66667
E5    E   0.00002  0.50000  0.50000
E6    E   0.00002  0.50002  0.66667
E7    E   0.08332  0.16665  0.25000
E8    E   0.08332  0.91667  0.91666
E9    E   0.08333  0.16665  0.25000
E10   E   0.08333  0.91668  0.91667
E11   E   0.16665  0.08332  0.08333
E12   E   0.16665  0.08333  0.08334
E13   E   0.16665  0.33332  0.12623
E14   E   0.16665  0.58332  0.08333
E15   E   0.16665  0.58333  0.08334
E16   E   0.16665  0.83333  0.04044
E17   E   0.16667  0.33335  0.79289
E18   E   0.16667  0.83332  0.37377
E19   E   0.16667  0.33332  0.37377
E20   E   0.16667  0.83335  0.79289
E21   E   0.16668  0.33335  0.70711
E22   E   0.16668  0.83333  0.45956
E23   E   0.33332  0.66665  0.20711
E24   E   0.33332  0.66667  0.95956
E25   E   0.33332  0.16665  0.20711
E26   E   0.33332  0.16667  0.95956
E27   E   0.33333  0.66665  0.29289
E28   E   0.33333  0.66668  0.87377
E29   E   0.33335  0.16667  0.54044
E30   E   0.33335  0.16668  0.62623
E31   E   0.33335  0.66667  0.54044
E32   E   0.33335  0.66668  0.62623
E33   E   0.41667  0.58332  0.41667
E34   E   0.41667  0.83335  0.75000
E35   E   0.41668  0.58333  0.41666
E36   E   0.41668  0.83335  0.75000
E37   E   0.49998  0.50000  0.00000
E38   E   0.49998  0.99998  0.16667
E39   E   0.50000  0.00002  0.83333
E40   E   0.50000  0.49998  0.33333
E41   E   0.50000  0.50002  0.83333
E42   E   0.50000  0.99998  0.33333
E43   E   0.50002  0.00002  0.66667
E44   E   0.50002  0.50000  0.50000
E45   E   0.58332  0.16665  0.25000
E46   E   0.58332  0.41667  0.91666
E47   E   0.58333  0.16665  0.25000
E48   E   0.58333  0.41668  0.91667
E49   E   0.66665  0.33332  0.12623
E50   E   0.66665  0.33333  0.04044
E51   E   0.66665  0.83332  0.12623
E52   E   0.66665  0.83333  0.04044
E53   E   0.66667  0.33332  0.37377
E54   E   0.66667  0.33335  0.79289
E55   E   0.66668  0.83333  0.45956
E56   E   0.66668  0.83335  0.70711
E57   E   0.66668  0.33333  0.45956
E58   E   0.66668  0.33335  0.70711
E59   E   0.83332  0.16667  0.95956
E60   E   0.83332  0.66665  0.20711
E61   E   0.83333  0.16665  0.29289
E62   E   0.83333  0.16668  0.87377
E63   E   0.83333  0.66665  0.29289
E64   E   0.83333  0.66668  0.87377
E65   E   0.83335  0.16667  0.54044
E66   E   0.83335  0.41667  0.58334
E67   E   0.83335  0.41668  0.58333
E68   E   0.83335  0.66668  0.62623
E69   E   0.83335  0.91667  0.58334
E70   E   0.83335  0.91668  0.58333
E71   E   0.91667  0.08332  0.41667
E72   E   0.91667  0.83335  0.75000
E73   E   0.91668  0.08333  0.41666
E74   E   0.91668  0.83335  0.75000
E75   E   0.99998  0.00000  0.00000
E76   E   0.99998  0.49998  0.16667
E77   E   0.99998  0.50000  0.00000
E78   E   0.99998  0.99998  0.16667
loop_
