data_etd_P6122  hall_number: 472, V_con: 3
_audit_creation_date              2025-03-06
_audit_creation_method            'MOFbuilder_1.0'
_symmetry_space_group_name_H-M    'P1'
_symmetry_Int_Tables_number       1
_symmetry_cell_setting            triclinic
loop_
_symmetry_equiv_pos_as_xyz
  x,y,z
_cell_length_a                    39.4249
_cell_length_b                    39.4249
_cell_length_c                    28.401200000000003
_cell_angle_alpha                 90.0
_cell_angle_beta                  90.0
_cell_angle_gamma                 120.0
loop_
_atom_site_label
_atom_site_type_symbol
_atom_site_fract_x
_atom_site_fract_y
_atom_site_fract_z
V1    V   0.11826  0.48844  0.22949
V2    V   0.11826  0.62982  0.93717
V3    V   0.37018  0.48844  0.27051
V4    V   0.37018  0.88174  0.89616
V5    V   0.48844  0.11826  0.10384
V6    V   0.48844  0.37018  0.06283
V7    V   0.51156  0.62982  0.56283
V8    V   0.51156  0.88174  0.60384
V9    V   0.62982  0.11826  0.39616
V10   V   0.62982  0.51156  0.77051
V11   V   0.88174  0.37018  0.43717
V12   V   0.88174  0.51156  0.72949
E1    E   0.00000  0.42931  0.33333
E2    E   0.00000  0.57069  0.83333
E3    E   0.11826  0.55913  0.08333
E4    E   0.11826  0.55913  0.08333
E5    E   0.24422  0.48844  0.25000
E6    E   0.24422  0.48844  0.25000
E7    E   0.24422  0.75578  0.91666
E8    E   0.24422  0.75578  0.91667
E9    E   0.42931  0.00000  0.00000
E10   E   0.42931  0.42931  0.16667
E11   E   0.44087  0.55913  0.41667
E12   E   0.44087  0.88174  0.75000
E13   E   0.48844  0.24422  0.08333
E14   E   0.48844  0.24422  0.08334
E15   E   0.51156  0.75578  0.58333
E16   E   0.51156  0.75578  0.58334
E17   E   0.55913  0.11826  0.25000
E18   E   0.55913  0.44087  0.91667
E19   E   0.57069  0.00000  0.50000
E20   E   0.57069  0.57069  0.66667
E21   E   0.75578  0.24422  0.41666
E22   E   0.75578  0.24422  0.41667
E23   E   0.75578  0.51156  0.75000
E24   E   0.75578  0.51156  0.75000
E25   E   0.88174  0.44087  0.58333
E26   E   0.88174  0.44087  0.58333
loop_
