data_ete_P6422  hall_number: 475, V_con: 3, EC_con: 3
_audit_creation_date              2025-03-06
_audit_creation_method            'MOFbuilder_1.0'
_symmetry_space_group_name_H-M    'P1'
_symmetry_Int_Tables_number       1
_symmetry_cell_setting            triclinic
loop_
_symmetry_equiv_pos_as_xyz
  x,y,z
_cell_length_a                    25.107400000000002
_cell_length_b                    25.107400000000002
_cell_length_c                    60.6663
_cell_angle_alpha                 90.0
_cell_angle_beta                  90.0
_cell_angle_gamma                 120.0
loop_
_atom_site_label
_atom_site_type_symbol
_atom_site_fract_x
_atom_site_fract_y
_atom_site_fract_z
V1    V   0.11497  0.22995  0.50000
V2    V   0.11497  0.88502  0.16667
V3    V   0.11498  0.22995  0.50000
V4    V   0.11498  0.88503  0.16667
V5    V   0.22995  0.11497  0.83333
V6    V   0.22995  0.11498  0.83333
V7    V   0.77005  0.88502  0.83333
V8    V   0.77005  0.88503  0.83333
V9    V   0.88502  0.11497  0.16667
V10   V   0.88502  0.77005  0.50000
V11   V   0.88503  0.11498  0.16667
V12   V   0.88503  0.77005  0.50000
EC1    EC   0.00000  0.50000  0.25091
EC2    EC   0.00000  0.50000  0.41575
EC3    EC   0.50000  0.00000  0.08242
EC4    EC   0.50000  0.00000  0.91758
EC5    EC   0.50000  0.50000  0.58425
EC6    EC   0.50000  0.50000  0.74909
E1    E   0.00000  0.00000  0.16667
E2    E   0.00000  0.00000  0.16667
E3    E   0.00000  0.00000  0.50000
E4    E   0.00000  0.00000  0.83333
E5    E   0.00000  0.50000  0.33333
E6    E   0.05749  0.36498  0.45787
E7    E   0.05749  0.69251  0.20879
E8    E   0.30749  0.36498  0.54213
E9    E   0.30749  0.94251  0.12454
E10   E   0.36498  0.05749  0.87546
E11   E   0.36498  0.30749  0.79121
E12   E   0.50000  0.00000  0.00000
E13   E   0.50000  0.50000  0.66667
E14   E   0.63502  0.69251  0.79121
E15   E   0.63502  0.94251  0.87546
E16   E   0.69251  0.05749  0.12454
E17   E   0.69251  0.63502  0.54213
E18   E   0.94251  0.30749  0.20879
E19   E   0.94251  0.63502  0.45787
loop_
