data_eti_I41/acd:2  hall_number: 429, V_con: 3, EC_con: 3
_audit_creation_date              2025-03-06
_audit_creation_method            'MOFbuilder_1.0'
_symmetry_space_group_name_H-M    'P1'
_symmetry_Int_Tables_number       1
_symmetry_cell_setting            triclinic
loop_
_symmetry_equiv_pos_as_xyz
  x,y,z
_cell_length_a                    54.650400000000005
_cell_length_b                    54.650400000000005
_cell_length_c                    57.5009
_cell_angle_alpha                 90.0
_cell_angle_beta                  90.0
_cell_angle_gamma                 90.0
loop_
_atom_site_label
_atom_site_type_symbol
_atom_site_fract_x
_atom_site_fract_y
_atom_site_fract_z
V1    V   0.08880  0.06886  0.30725
V2    V   0.08880  0.43114  0.80725
V3    V   0.08880  0.56886  0.69275
V4    V   0.08880  0.93114  0.19275
V5    V   0.18114  0.16120  0.94275
V6    V   0.18114  0.33880  0.44275
V7    V   0.18114  0.66120  0.05725
V8    V   0.18114  0.83880  0.55725
V9    V   0.31886  0.16120  0.05725
V10   V   0.31886  0.33880  0.55725
V11   V   0.31886  0.66120  0.94275
V12   V   0.31886  0.83880  0.44275
V13   V   0.41120  0.06886  0.69275
V14   V   0.41120  0.43114  0.19275
V15   V   0.41120  0.56886  0.30725
V16   V   0.41120  0.93114  0.80725
V17   V   0.58880  0.06886  0.19275
V18   V   0.58880  0.43114  0.69275
V19   V   0.58880  0.56886  0.80725
V20   V   0.58880  0.93114  0.30725
V21   V   0.68114  0.16120  0.55725
V22   V   0.68114  0.33880  0.05725
V23   V   0.68114  0.66120  0.44275
V24   V   0.68114  0.83880  0.94275
V25   V   0.81886  0.16120  0.44275
V26   V   0.81886  0.33880  0.94275
V27   V   0.81886  0.66120  0.55725
V28   V   0.81886  0.83880  0.05725
V29   V   0.91120  0.06886  0.80725
V30   V   0.91120  0.43114  0.30725
V31   V   0.91120  0.56886  0.19275
V32   V   0.91120  0.93114  0.69275
EC1    EC   0.02904  0.05952  0.94001
EC2    EC   0.02904  0.44048  0.44001
EC3    EC   0.02904  0.55952  0.05999
EC4    EC   0.02904  0.94048  0.55999
EC5    EC   0.19048  0.22096  0.30999
EC6    EC   0.19048  0.27904  0.80999
EC7    EC   0.19048  0.72096  0.69001
EC8    EC   0.19048  0.77904  0.19001
EC9    EC   0.30952  0.22096  0.69001
EC10   EC   0.30952  0.27904  0.19001
EC11   EC   0.30952  0.72096  0.30999
EC12   EC   0.30952  0.77904  0.80999
EC13   EC   0.47096  0.05952  0.05999
EC14   EC   0.47096  0.44048  0.55999
EC15   EC   0.47096  0.55952  0.94001
EC16   EC   0.47096  0.94048  0.44001
EC17   EC   0.52904  0.05952  0.55999
EC18   EC   0.52904  0.44048  0.05999
EC19   EC   0.52904  0.55952  0.44001
EC20   EC   0.52904  0.94048  0.94001
EC21   EC   0.69048  0.22096  0.19001
EC22   EC   0.69048  0.27904  0.69001
EC23   EC   0.69048  0.72096  0.80999
EC24   EC   0.69048  0.77904  0.30999
EC25   EC   0.80952  0.22096  0.80999
EC26   EC   0.80952  0.27904  0.30999
EC27   EC   0.80952  0.72096  0.19001
EC28   EC   0.80952  0.77904  0.69001
EC29   EC   0.97096  0.05952  0.44001
EC30   EC   0.97096  0.44048  0.94001
EC31   EC   0.97096  0.55952  0.55999
EC32   EC   0.97096  0.94048  0.05999
E1    E   0.00000  0.00000  0.00000
E2    E   0.00000  0.00000  0.50000
E3    E   0.00000  0.50000  0.00000
E4    E   0.00000  0.50000  0.50000
E5    E   0.02988  0.06419  0.37363
E6    E   0.02988  0.43581  0.87363
E7    E   0.02988  0.56419  0.62637
E8    E   0.02988  0.93581  0.12637
E9    E   0.08880  0.00000  0.25000
E10   E   0.08880  0.50000  0.75000
E11   E   0.10509  0.11036  0.94138
E12   E   0.10509  0.38964  0.44138
E13   E   0.10509  0.61036  0.05862
E14   E   0.10509  0.88964  0.55862
E15   E   0.13964  0.14491  0.30862
E16   E   0.13964  0.35509  0.80862
E17   E   0.13964  0.64491  0.69138
E18   E   0.13964  0.85509  0.19138
E19   E   0.18581  0.22012  0.87637
E20   E   0.18581  0.27988  0.37637
E21   E   0.18581  0.72012  0.12363
E22   E   0.18581  0.77988  0.62363
E23   E   0.25000  0.16120  0.00000
E24   E   0.25000  0.25000  0.25000
E25   E   0.25000  0.25000  0.75000
E26   E   0.25000  0.33880  0.50000
E27   E   0.25000  0.66120  0.00000
E28   E   0.25000  0.75000  0.25000
E29   E   0.25000  0.75000  0.75000
E30   E   0.25000  0.83880  0.50000
E31   E   0.31419  0.22012  0.12363
E32   E   0.31419  0.27988  0.62363
E33   E   0.31419  0.72012  0.87637
E34   E   0.31419  0.77988  0.37637
E35   E   0.36036  0.14491  0.69138
E36   E   0.36036  0.35509  0.19138
E37   E   0.36036  0.64491  0.30862
E38   E   0.36036  0.85509  0.80862
E39   E   0.39491  0.11036  0.05862
E40   E   0.39491  0.38964  0.55862
E41   E   0.39491  0.61036  0.94138
E42   E   0.39491  0.88964  0.44138
E43   E   0.41120  0.00000  0.75000
E44   E   0.41120  0.50000  0.25000
E45   E   0.47012  0.06419  0.62637
E46   E   0.47012  0.43581  0.12637
E47   E   0.47012  0.56419  0.37363
E48   E   0.47012  0.93581  0.87363
E49   E   0.50000  0.00000  0.00000
E50   E   0.50000  0.00000  0.50000
E51   E   0.50000  0.50000  0.00000
E52   E   0.50000  0.50000  0.50000
E53   E   0.52988  0.06419  0.12637
E54   E   0.52988  0.43581  0.62637
E55   E   0.52988  0.56419  0.87363
E56   E   0.52988  0.93581  0.37363
E57   E   0.58880  0.00000  0.25000
E58   E   0.58880  0.50000  0.75000
E59   E   0.60509  0.11036  0.55862
E60   E   0.60509  0.38964  0.05862
E61   E   0.60509  0.61036  0.44138
E62   E   0.60509  0.88964  0.94138
E63   E   0.63964  0.14491  0.19138
E64   E   0.63964  0.35509  0.69138
E65   E   0.63964  0.64491  0.80862
E66   E   0.63964  0.85509  0.30862
E67   E   0.68581  0.22012  0.62363
E68   E   0.68581  0.27988  0.12363
E69   E   0.68581  0.72012  0.37637
E70   E   0.68581  0.77988  0.87637
E71   E   0.75000  0.16120  0.50000
E72   E   0.75000  0.25000  0.25000
E73   E   0.75000  0.25000  0.75000
E74   E   0.75000  0.33880  0.00000
E75   E   0.75000  0.66120  0.50000
E76   E   0.75000  0.75000  0.25000
E77   E   0.75000  0.75000  0.75000
E78   E   0.75000  0.83880  0.00000
E79   E   0.81419  0.22012  0.37637
E80   E   0.81419  0.27988  0.87637
E81   E   0.81419  0.72012  0.62363
E82   E   0.81419  0.77988  0.12363
E83   E   0.86036  0.14491  0.80862
E84   E   0.86036  0.35509  0.30862
E85   E   0.86036  0.64491  0.19138
E86   E   0.86036  0.85509  0.69138
E87   E   0.89491  0.11036  0.44138
E88   E   0.89491  0.38964  0.94138
E89   E   0.89491  0.61036  0.55862
E90   E   0.89491  0.88964  0.05862
E91   E   0.91120  0.00000  0.75000
E92   E   0.91120  0.50000  0.25000
E93   E   0.97012  0.06419  0.87363
E94   E   0.97012  0.43581  0.37363
E95   E   0.97012  0.56419  0.12637
E96   E   0.97012  0.93581  0.62637
loop_
