data_etm_Ibam  hall_number: 338, V_con: 3, EC_con: 3
_audit_creation_date              2025-03-06
_audit_creation_method            'MOFbuilder_1.0'
_symmetry_space_group_name_H-M    'P1'
_symmetry_Int_Tables_number       1
_symmetry_cell_setting            triclinic
loop_
_symmetry_equiv_pos_as_xyz
  x,y,z
_cell_length_a                    51.7711
_cell_length_b                    33.504999999999995
_cell_length_c                    39.011300000000006
_cell_angle_alpha                 90.0
_cell_angle_beta                  90.0
_cell_angle_gamma                 90.0
loop_
_atom_site_label
_atom_site_type_symbol
_atom_site_fract_x
_atom_site_fract_y
_atom_site_fract_z
V1    V   0.20179  0.13541  0.30234
V2    V   0.20179  0.13541  0.69766
V3    V   0.20179  0.86459  0.19766
V4    V   0.20179  0.86459  0.80234
V5    V   0.29821  0.36459  0.19766
V6    V   0.29821  0.36459  0.80234
V7    V   0.29821  0.63541  0.30234
V8    V   0.29821  0.63541  0.69766
V9    V   0.70179  0.36459  0.30234
V10   V   0.70179  0.36459  0.69766
V11   V   0.70179  0.63541  0.19766
V12   V   0.70179  0.63541  0.80234
V13   V   0.79821  0.13541  0.19766
V14   V   0.79821  0.13541  0.80234
V15   V   0.79821  0.86459  0.30234
V16   V   0.79821  0.86459  0.69766
EC1    EC   0.08889  0.06019  0.50000
EC2    EC   0.08889  0.93981  0.00000
EC3    EC   0.41111  0.43981  0.00000
EC4    EC   0.41111  0.56019  0.50000
EC5    EC   0.58889  0.43981  0.50000
EC6    EC   0.58889  0.56019  0.00000
EC7    EC   0.91111  0.06019  0.00000
EC8    EC   0.91111  0.93981  0.50000
E1    E   0.00000  0.00000  0.00000
E2    E   0.00000  0.00000  0.50000
E3    E   0.14534  0.09780  0.40117
E4    E   0.14534  0.09780  0.59883
E5    E   0.14534  0.90220  0.09883
E6    E   0.14534  0.90220  0.90117
E7    E   0.20179  0.00000  0.25000
E8    E   0.20179  0.00000  0.75000
E9    E   0.25000  0.25000  0.25000
E10   E   0.25000  0.25000  0.75000
E11   E   0.25000  0.75000  0.25000
E12   E   0.25000  0.75000  0.75000
E13   E   0.29821  0.50000  0.25000
E14   E   0.29821  0.50000  0.75000
E15   E   0.35466  0.40220  0.09883
E16   E   0.35466  0.40220  0.90117
E17   E   0.35466  0.59780  0.40117
E18   E   0.35466  0.59780  0.59883
E19   E   0.50000  0.50000  0.00000
E20   E   0.50000  0.50000  0.50000
E21   E   0.64534  0.40220  0.40117
E22   E   0.64534  0.40220  0.59883
E23   E   0.64534  0.59780  0.09883
E24   E   0.64534  0.59780  0.90117
E25   E   0.70179  0.50000  0.25000
E26   E   0.70179  0.50000  0.75000
E27   E   0.75000  0.25000  0.25000
E28   E   0.75000  0.25000  0.75000
E29   E   0.75000  0.75000  0.25000
E30   E   0.75000  0.75000  0.75000
E31   E   0.79821  0.00000  0.25000
E32   E   0.79821  0.00000  0.75000
E33   E   0.85466  0.09780  0.09883
E34   E   0.85466  0.09780  0.90117
E35   E   0.85466  0.90220  0.40117
E36   E   0.85466  0.90220  0.59883
loop_
