data_etn_I4/mmm  hall_number: 424, V_con: 3, EC_con: 3
_audit_creation_date              2025-03-06
_audit_creation_method            'MOFbuilder_1.0'
_symmetry_space_group_name_H-M    'P1'
_symmetry_Int_Tables_number       1
_symmetry_cell_setting            triclinic
loop_
_symmetry_equiv_pos_as_xyz
  x,y,z
_cell_length_a                    48.4674
_cell_length_b                    48.4674
_cell_length_c                    40.5372
_cell_angle_alpha                 90.0
_cell_angle_beta                  90.0
_cell_angle_gamma                 90.0
loop_
_atom_site_label
_atom_site_type_symbol
_atom_site_fract_x
_atom_site_fract_y
_atom_site_fract_z
V1    V   0.00000  0.32301  0.37666
V2    V   0.00000  0.32301  0.62334
V3    V   0.00000  0.67699  0.37666
V4    V   0.00000  0.67699  0.62334
V5    V   0.17699  0.50000  0.12334
V6    V   0.17699  0.50000  0.87666
V7    V   0.32301  0.00000  0.37666
V8    V   0.32301  0.00000  0.62334
V9    V   0.50000  0.17699  0.12334
V10   V   0.50000  0.17699  0.87666
V11   V   0.50000  0.82301  0.12334
V12   V   0.50000  0.82301  0.87666
V13   V   0.67699  0.00000  0.37666
V14   V   0.67699  0.00000  0.62334
V15   V   0.82301  0.50000  0.12334
V16   V   0.82301  0.50000  0.87666
EC1    EC   0.17705  0.32295  0.25000
EC2    EC   0.17705  0.32295  0.75000
EC3    EC   0.17705  0.67705  0.25000
EC4    EC   0.17705  0.67705  0.75000
EC5    EC   0.17705  0.32295  0.25000
EC6    EC   0.17705  0.32295  0.75000
EC7    EC   0.17705  0.67705  0.25000
EC8    EC   0.17705  0.67705  0.75000
EC9    EC   0.32295  0.17705  0.25000
EC10   EC   0.32295  0.17705  0.75000
EC11   EC   0.32295  0.82295  0.25000
EC12   EC   0.32295  0.82295  0.75000
EC13   EC   0.32295  0.17705  0.25000
EC14   EC   0.32295  0.17705  0.75000
EC15   EC   0.32295  0.82295  0.25000
EC16   EC   0.32295  0.82295  0.75000
EC17   EC   0.67705  0.17705  0.25000
EC18   EC   0.67705  0.17705  0.75000
EC19   EC   0.67705  0.82295  0.25000
EC20   EC   0.67705  0.82295  0.75000
EC21   EC   0.67705  0.17705  0.25000
EC22   EC   0.67705  0.17705  0.75000
EC23   EC   0.67705  0.82295  0.25000
EC24   EC   0.67705  0.82295  0.75000
EC25   EC   0.82295  0.32295  0.25000
EC26   EC   0.82295  0.32295  0.75000
EC27   EC   0.82295  0.67705  0.25000
EC28   EC   0.82295  0.67705  0.75000
EC29   EC   0.82295  0.32295  0.25000
EC30   EC   0.82295  0.32295  0.75000
EC31   EC   0.82295  0.67705  0.25000
EC32   EC   0.82295  0.67705  0.75000
E1    E   0.00000  0.32301  0.50000
E2    E   0.00000  0.67699  0.50000
E3    E   0.08853  0.32298  0.31333
E4    E   0.08853  0.32298  0.68667
E5    E   0.08853  0.67702  0.31333
E6    E   0.08853  0.67702  0.68667
E7    E   0.17699  0.50000  0.00000
E8    E   0.17702  0.41147  0.18667
E9    E   0.17702  0.41147  0.81333
E10   E   0.17702  0.58853  0.18667
E11   E   0.17702  0.58853  0.81333
E12   E   0.25000  0.25000  0.25000
E13   E   0.25000  0.25000  0.75000
E14   E   0.25000  0.75000  0.25000
E15   E   0.25000  0.75000  0.75000
E16   E   0.32298  0.08853  0.31333
E17   E   0.32298  0.08853  0.68667
E18   E   0.32298  0.91147  0.31333
E19   E   0.32298  0.91147  0.68667
E20   E   0.32301  0.00000  0.50000
E21   E   0.41147  0.17702  0.18667
E22   E   0.41147  0.17702  0.81333
E23   E   0.41147  0.82298  0.18667
E24   E   0.41147  0.82298  0.81333
E25   E   0.50000  0.17699  0.00000
E26   E   0.50000  0.82301  0.00000
E27   E   0.58853  0.17702  0.18667
E28   E   0.58853  0.17702  0.81333
E29   E   0.58853  0.82298  0.18667
E30   E   0.58853  0.82298  0.81333
E31   E   0.67699  0.00000  0.50000
E32   E   0.67702  0.08853  0.31333
E33   E   0.67702  0.08853  0.68667
E34   E   0.67702  0.91147  0.31333
E35   E   0.67702  0.91147  0.68667
E36   E   0.75000  0.25000  0.25000
E37   E   0.75000  0.25000  0.75000
E38   E   0.75000  0.75000  0.25000
E39   E   0.75000  0.75000  0.75000
E40   E   0.82298  0.41147  0.18667
E41   E   0.82298  0.41147  0.81333
E42   E   0.82298  0.58853  0.18667
E43   E   0.82298  0.58853  0.81333
E44   E   0.82301  0.50000  0.00000
E45   E   0.91147  0.32298  0.31333
E46   E   0.91147  0.32298  0.68667
E47   E   0.91147  0.67702  0.31333
E48   E   0.91147  0.67702  0.68667
loop_
