data_etp_I4132  hall_number: 510, V_con: 3, EC_con: 3
_audit_creation_date              2025-03-06
_audit_creation_method            'MOFbuilder_1.0'
_symmetry_space_group_name_H-M    'P1'
_symmetry_Int_Tables_number       1
_symmetry_cell_setting            triclinic
loop_
_symmetry_equiv_pos_as_xyz
  x,y,z
_cell_length_a                    54.2635
_cell_length_b                    54.2635
_cell_length_c                    54.2635
_cell_angle_alpha                 90.0
_cell_angle_beta                  90.0
_cell_angle_gamma                 90.0
loop_
_atom_site_label
_atom_site_type_symbol
_atom_site_fract_x
_atom_site_fract_y
_atom_site_fract_z
V1    V   0.04136  0.04136  0.04136
V2    V   0.04136  0.95864  0.45864
V3    V   0.20864  0.20864  0.20864
V4    V   0.20864  0.79136  0.29136
V5    V   0.29136  0.20864  0.79136
V6    V   0.29136  0.79136  0.70864
V7    V   0.45864  0.04136  0.95864
V8    V   0.45864  0.95864  0.54136
V9    V   0.54136  0.45864  0.95864
V10   V   0.54136  0.54136  0.54136
V11   V   0.70864  0.29136  0.79136
V12   V   0.70864  0.70864  0.70864
V13   V   0.79136  0.29136  0.20864
V14   V   0.79136  0.70864  0.29136
V15   V   0.95864  0.45864  0.04136
V16   V   0.95864  0.54136  0.45864
EC1    EC   0.04463  0.16934  0.90886
EC2    EC   0.04463  0.83066  0.59114
EC3    EC   0.08066  0.20537  0.34114
EC4    EC   0.08066  0.79463  0.15886
EC5    EC   0.09114  0.45537  0.16934
EC6    EC   0.09114  0.54463  0.33066
EC7    EC   0.15886  0.08066  0.79463
EC8    EC   0.15886  0.91934  0.70537
EC9    EC   0.16934  0.09114  0.45537
EC10   EC   0.16934  0.90886  0.04463
EC11   EC   0.20537  0.34114  0.08066
EC12   EC   0.20537  0.65886  0.41934
EC13   EC   0.29463  0.34114  0.91934
EC14   EC   0.29463  0.65886  0.58066
EC15   EC   0.33066  0.09114  0.54463
EC16   EC   0.33066  0.90886  0.95537
EC17   EC   0.34114  0.08066  0.20537
EC18   EC   0.34114  0.91934  0.29463
EC19   EC   0.40886  0.45537  0.83066
EC20   EC   0.40886  0.54463  0.66934
EC21   EC   0.41934  0.20537  0.65886
EC22   EC   0.41934  0.79463  0.84114
EC23   EC   0.45537  0.16934  0.09114
EC24   EC   0.45537  0.83066  0.40886
EC25   EC   0.54463  0.33066  0.09114
EC26   EC   0.54463  0.66934  0.40886
EC27   EC   0.58066  0.29463  0.65886
EC28   EC   0.58066  0.70537  0.84114
EC29   EC   0.59114  0.04463  0.83066
EC30   EC   0.59114  0.95537  0.66934
EC31   EC   0.65886  0.41934  0.20537
EC32   EC   0.65886  0.58066  0.29463
EC33   EC   0.66934  0.40886  0.54463
EC34   EC   0.66934  0.59114  0.95537
EC35   EC   0.70537  0.15886  0.91934
EC36   EC   0.70537  0.84114  0.58066
EC37   EC   0.79463  0.15886  0.08066
EC38   EC   0.79463  0.84114  0.41934
EC39   EC   0.83066  0.40886  0.45537
EC40   EC   0.83066  0.59114  0.04463
EC41   EC   0.84114  0.41934  0.79463
EC42   EC   0.84114  0.58066  0.70537
EC43   EC   0.90886  0.04463  0.16934
EC44   EC   0.90886  0.95537  0.33066
EC45   EC   0.91934  0.29463  0.34114
EC46   EC   0.91934  0.70537  0.15886
EC47   EC   0.95537  0.33066  0.90886
EC48   EC   0.95537  0.66934  0.59114
E1    E   0.00000  0.25000  0.34114
E2    E   0.00000  0.25000  0.90886
E3    E   0.00000  0.75000  0.15886
E4    E   0.00000  0.75000  0.59114
E5    E   0.02489  0.45700  0.10535
E6    E   0.02489  0.54300  0.39465
E7    E   0.04300  0.10535  0.97511
E8    E   0.04300  0.89465  0.52489
E9    E   0.09114  0.50000  0.25000
E10   E   0.10174  0.12500  0.85174
E11   E   0.10174  0.87500  0.64826
E12   E   0.10535  0.02489  0.45700
E13   E   0.10535  0.97511  0.04300
E14   E   0.12500  0.14826  0.39826
E15   E   0.12500  0.14826  0.39826
E16   E   0.12500  0.85174  0.10174
E17   E   0.14465  0.20700  0.27489
E18   E   0.14465  0.79300  0.22511
E19   E   0.14826  0.39826  0.12500
E20   E   0.14826  0.60174  0.37500
E21   E   0.14826  0.39826  0.12500
E22   E   0.14826  0.60174  0.37500
E23   E   0.15886  0.00000  0.75000
E24   E   0.20700  0.27489  0.14465
E25   E   0.20700  0.72511  0.35535
E26   E   0.22511  0.14465  0.79300
E27   E   0.22511  0.85535  0.70700
E28   E   0.25000  0.09114  0.50000
E29   E   0.25000  0.34114  0.00000
E30   E   0.25000  0.65886  0.50000
E31   E   0.25000  0.90886  0.00000
E32   E   0.27489  0.14465  0.20700
E33   E   0.27489  0.85535  0.29300
E34   E   0.29300  0.27489  0.85535
E35   E   0.29300  0.72511  0.64465
E36   E   0.34114  0.00000  0.25000
E37   E   0.35174  0.39826  0.87500
E38   E   0.35174  0.60174  0.62500
E39   E   0.35535  0.20700  0.72511
E40   E   0.35535  0.79300  0.77489
E41   E   0.37500  0.14826  0.60174
E42   E   0.37500  0.14826  0.60174
E43   E   0.37500  0.85174  0.89826
E44   E   0.39465  0.02489  0.54300
E45   E   0.39465  0.97511  0.95700
E46   E   0.39826  0.12500  0.14826
E47   E   0.39826  0.12500  0.14826
E48   E   0.39826  0.87500  0.35174
E49   E   0.40886  0.50000  0.75000
E50   E   0.45700  0.10535  0.02489
E51   E   0.45700  0.89465  0.47511
E52   E   0.47511  0.45700  0.89465
E53   E   0.47511  0.54300  0.60535
E54   E   0.50000  0.25000  0.09114
E55   E   0.50000  0.25000  0.65886
E56   E   0.50000  0.75000  0.40886
E57   E   0.50000  0.75000  0.84114
E58   E   0.52489  0.04300  0.89465
E59   E   0.52489  0.95700  0.60535
E60   E   0.54300  0.39465  0.02489
E61   E   0.54300  0.60535  0.47511
E62   E   0.59114  0.00000  0.75000
E63   E   0.60174  0.37500  0.14826
E64   E   0.60174  0.37500  0.14826
E65   E   0.60174  0.62500  0.35174
E66   E   0.60535  0.47511  0.54300
E67   E   0.60535  0.52489  0.95700
E68   E   0.62500  0.35174  0.60174
E69   E   0.62500  0.64826  0.89826
E70   E   0.64465  0.29300  0.72511
E71   E   0.64465  0.70700  0.77489
E72   E   0.64826  0.10174  0.87500
E73   E   0.64826  0.89826  0.62500
E74   E   0.65886  0.50000  0.25000
E75   E   0.70700  0.22511  0.85535
E76   E   0.70700  0.77489  0.64465
E77   E   0.72511  0.35535  0.20700
E78   E   0.72511  0.64465  0.29300
E79   E   0.75000  0.15886  0.00000
E80   E   0.75000  0.40886  0.50000
E81   E   0.75000  0.59114  0.00000
E82   E   0.75000  0.84114  0.50000
E83   E   0.77489  0.35535  0.79300
E84   E   0.77489  0.64465  0.70700
E85   E   0.79300  0.22511  0.14465
E86   E   0.79300  0.77489  0.35535
E87   E   0.84114  0.50000  0.75000
E88   E   0.85174  0.10174  0.12500
E89   E   0.85174  0.89826  0.37500
E90   E   0.85535  0.29300  0.27489
E91   E   0.85535  0.70700  0.22511
E92   E   0.87500  0.35174  0.39826
E93   E   0.87500  0.64826  0.10174
E94   E   0.89465  0.47511  0.45700
E95   E   0.89465  0.52489  0.04300
E96   E   0.89826  0.37500  0.85174
E97   E   0.89826  0.62500  0.64826
E98   E   0.90886  0.00000  0.25000
E99   E   0.95700  0.39465  0.97511
E100  E   0.95700  0.60535  0.52489
E101  E   0.97511  0.04300  0.10535
E102  E   0.97511  0.95700  0.39465
loop_
