data_fcg_I432  hall_number: 507, V_con: 5
_audit_creation_date              2025-03-06
_audit_creation_method            'MOFbuilder_1.0'
_symmetry_space_group_name_H-M    'P1'
_symmetry_Int_Tables_number       1
_symmetry_cell_setting            triclinic
loop_
_symmetry_equiv_pos_as_xyz
  x,y,z
_cell_length_a                    39.718900000000005
_cell_length_b                    39.718900000000005
_cell_length_c                    39.718900000000005
_cell_angle_alpha                 90.0
_cell_angle_beta                  90.0
_cell_angle_gamma                 90.0
loop_
_atom_site_label
_atom_site_type_symbol
_atom_site_fract_x
_atom_site_fract_y
_atom_site_fract_z
V1    V   0.10233  0.14568  0.70197
V2    V   0.10233  0.29803  0.14568
V3    V   0.10233  0.70197  0.85432
V4    V   0.10233  0.85432  0.29803
V5    V   0.14568  0.10233  0.29803
V6    V   0.14568  0.29803  0.89767
V7    V   0.14568  0.70197  0.10233
V8    V   0.14568  0.89767  0.70197
V9    V   0.20197  0.35432  0.60233
V10   V   0.20197  0.39767  0.35432
V11   V   0.20197  0.60233  0.64568
V12   V   0.20197  0.64568  0.39767
V13   V   0.29803  0.10233  0.85432
V14   V   0.29803  0.14568  0.10233
V15   V   0.29803  0.85432  0.89767
V16   V   0.29803  0.89767  0.14568
V17   V   0.35432  0.20197  0.39767
V18   V   0.35432  0.39767  0.79803
V19   V   0.35432  0.60233  0.20197
V20   V   0.35432  0.79803  0.60233
V21   V   0.39767  0.20197  0.64568
V22   V   0.39767  0.35432  0.20197
V23   V   0.39767  0.64568  0.79803
V24   V   0.39767  0.79803  0.35432
V25   V   0.60233  0.20197  0.35432
V26   V   0.60233  0.35432  0.79803
V27   V   0.60233  0.64568  0.20197
V28   V   0.60233  0.79803  0.64568
V29   V   0.64568  0.20197  0.60233
V30   V   0.64568  0.39767  0.20197
V31   V   0.64568  0.60233  0.79803
V32   V   0.64568  0.79803  0.39767
V33   V   0.70197  0.10233  0.14568
V34   V   0.70197  0.14568  0.89767
V35   V   0.70197  0.85432  0.10233
V36   V   0.70197  0.89767  0.85432
V37   V   0.79803  0.35432  0.39767
V38   V   0.79803  0.39767  0.64568
V39   V   0.79803  0.60233  0.35432
V40   V   0.79803  0.64568  0.60233
V41   V   0.85432  0.10233  0.70197
V42   V   0.85432  0.29803  0.10233
V43   V   0.85432  0.70197  0.89767
V44   V   0.85432  0.89767  0.29803
V45   V   0.89767  0.14568  0.29803
V46   V   0.89767  0.29803  0.85432
V47   V   0.89767  0.70197  0.14568
V48   V   0.89767  0.85432  0.70197
E1    E   0.02167  0.12400  0.29803
E2    E   0.02167  0.29803  0.87600
E3    E   0.02167  0.70197  0.12400
E4    E   0.02167  0.87600  0.70197
E5    E   0.12400  0.02167  0.70197
E6    E   0.12400  0.20018  0.22185
E7    E   0.12400  0.22185  0.79982
E8    E   0.12400  0.29803  0.02167
E9    E   0.12400  0.70197  0.97833
E10   E   0.12400  0.77815  0.20018
E11   E   0.12400  0.79982  0.77815
E12   E   0.12400  0.97833  0.29803
E13   E   0.15215  0.25000  0.65215
E14   E   0.15215  0.34785  0.25000
E15   E   0.15215  0.65215  0.75000
E16   E   0.15215  0.75000  0.34785
E17   E   0.20018  0.12400  0.77815
E18   E   0.20018  0.22185  0.12400
E19   E   0.20018  0.77815  0.87600
E20   E   0.20018  0.87600  0.22185
E21   E   0.20197  0.37600  0.47833
E22   E   0.20197  0.47833  0.62400
E23   E   0.20197  0.52167  0.37600
E24   E   0.20197  0.62400  0.52167
E25   E   0.22185  0.12400  0.20018
E26   E   0.22185  0.20018  0.87600
E27   E   0.22185  0.79982  0.12400
E28   E   0.22185  0.87600  0.79982
E29   E   0.25000  0.15215  0.34785
E30   E   0.25000  0.34785  0.84785
E31   E   0.25000  0.65215  0.15215
E32   E   0.25000  0.84785  0.65215
E33   E   0.27815  0.29982  0.37600
E34   E   0.27815  0.37600  0.70018
E35   E   0.27815  0.62400  0.29982
E36   E   0.27815  0.70018  0.62400
E37   E   0.29803  0.02167  0.12400
E38   E   0.29803  0.12400  0.97833
E39   E   0.29803  0.87600  0.02167
E40   E   0.29803  0.97833  0.87600
E41   E   0.29982  0.27815  0.62400
E42   E   0.29982  0.37600  0.27815
E43   E   0.29982  0.62400  0.72185
E44   E   0.29982  0.72185  0.37600
E45   E   0.34785  0.15215  0.75000
E46   E   0.34785  0.25000  0.15215
E47   E   0.34785  0.75000  0.84785
E48   E   0.34785  0.84785  0.25000
E49   E   0.37600  0.20197  0.52167
E50   E   0.37600  0.27815  0.29982
E51   E   0.37600  0.29982  0.72185
E52   E   0.37600  0.47833  0.20197
E53   E   0.37600  0.52167  0.79803
E54   E   0.37600  0.70018  0.27815
E55   E   0.37600  0.72185  0.70018
E56   E   0.37600  0.79803  0.47833
E57   E   0.47833  0.20197  0.37600
E58   E   0.47833  0.37600  0.79803
E59   E   0.47833  0.62400  0.20197
E60   E   0.47833  0.79803  0.62400
E61   E   0.52167  0.20197  0.62400
E62   E   0.52167  0.37600  0.20197
E63   E   0.52167  0.62400  0.79803
E64   E   0.52167  0.79803  0.37600
E65   E   0.62400  0.20197  0.47833
E66   E   0.62400  0.27815  0.70018
E67   E   0.62400  0.29982  0.27815
E68   E   0.62400  0.47833  0.79803
E69   E   0.62400  0.52167  0.20197
E70   E   0.62400  0.70018  0.72185
E71   E   0.62400  0.72185  0.29982
E72   E   0.62400  0.79803  0.52167
E73   E   0.65215  0.15215  0.25000
E74   E   0.65215  0.25000  0.84785
E75   E   0.65215  0.75000  0.15215
E76   E   0.65215  0.84785  0.75000
E77   E   0.70018  0.27815  0.37600
E78   E   0.70018  0.37600  0.72185
E79   E   0.70018  0.62400  0.27815
E80   E   0.70018  0.72185  0.62400
E81   E   0.70197  0.02167  0.87600
E82   E   0.70197  0.12400  0.02167
E83   E   0.70197  0.87600  0.97833
E84   E   0.70197  0.97833  0.12400
E85   E   0.72185  0.29982  0.62400
E86   E   0.72185  0.37600  0.29982
E87   E   0.72185  0.62400  0.70018
E88   E   0.72185  0.70018  0.37600
E89   E   0.75000  0.15215  0.65215
E90   E   0.75000  0.34785  0.15215
E91   E   0.75000  0.65215  0.84785
E92   E   0.75000  0.84785  0.34785
E93   E   0.77815  0.12400  0.79982
E94   E   0.77815  0.20018  0.12400
E95   E   0.77815  0.79982  0.87600
E96   E   0.77815  0.87600  0.20018
E97   E   0.79803  0.37600  0.52167
E98   E   0.79803  0.47833  0.37600
E99   E   0.79803  0.52167  0.62400
E100  E   0.79803  0.62400  0.47833
E101  E   0.79982  0.12400  0.22185
E102  E   0.79982  0.22185  0.87600
E103  E   0.79982  0.77815  0.12400
E104  E   0.79982  0.87600  0.77815
E105  E   0.84785  0.25000  0.34785
E106  E   0.84785  0.34785  0.75000
E107  E   0.84785  0.65215  0.25000
E108  E   0.84785  0.75000  0.65215
E109  E   0.87600  0.02167  0.29803
E110  E   0.87600  0.20018  0.77815
E111  E   0.87600  0.22185  0.20018
E112  E   0.87600  0.29803  0.97833
E113  E   0.87600  0.70197  0.02167
E114  E   0.87600  0.77815  0.79982
E115  E   0.87600  0.79982  0.22185
E116  E   0.87600  0.97833  0.70197
E117  E   0.97833  0.12400  0.70197
E118  E   0.97833  0.29803  0.12400
E119  E   0.97833  0.70197  0.87600
E120  E   0.97833  0.87600  0.29803
loop_
