data_fch_I432  hall_number: 507, V_con: 5
_audit_creation_date              2025-03-06
_audit_creation_method            'MOFbuilder_1.0'
_symmetry_space_group_name_H-M    'P1'
_symmetry_Int_Tables_number       1
_symmetry_cell_setting            triclinic
loop_
_symmetry_equiv_pos_as_xyz
  x,y,z
_cell_length_a                    45.676899999999996
_cell_length_b                    45.676899999999996
_cell_length_c                    45.676899999999996
_cell_angle_alpha                 90.0
_cell_angle_beta                  90.0
_cell_angle_gamma                 90.0
loop_
_atom_site_label
_atom_site_type_symbol
_atom_site_fract_x
_atom_site_fract_y
_atom_site_fract_z
V1    V   0.05924  0.14302  0.59205
V2    V   0.05924  0.40795  0.14302
V3    V   0.05924  0.59205  0.85698
V4    V   0.05924  0.85698  0.40795
V5    V   0.09205  0.35698  0.55924
V6    V   0.09205  0.44076  0.35698
V7    V   0.09205  0.55924  0.64302
V8    V   0.09205  0.64302  0.44076
V9    V   0.14302  0.05924  0.40795
V10   V   0.14302  0.40795  0.94076
V11   V   0.14302  0.59205  0.05924
V12   V   0.14302  0.94076  0.59205
V13   V   0.35698  0.09205  0.44076
V14   V   0.35698  0.44076  0.90795
V15   V   0.35698  0.55924  0.09205
V16   V   0.35698  0.90795  0.55924
V17   V   0.40795  0.05924  0.85698
V18   V   0.40795  0.14302  0.05924
V19   V   0.40795  0.85698  0.94076
V20   V   0.40795  0.94076  0.14302
V21   V   0.44076  0.09205  0.64302
V22   V   0.44076  0.35698  0.09205
V23   V   0.44076  0.64302  0.90795
V24   V   0.44076  0.90795  0.35698
V25   V   0.55924  0.09205  0.35698
V26   V   0.55924  0.35698  0.90795
V27   V   0.55924  0.64302  0.09205
V28   V   0.55924  0.90795  0.64302
V29   V   0.59205  0.05924  0.14302
V30   V   0.59205  0.14302  0.94076
V31   V   0.59205  0.85698  0.05924
V32   V   0.59205  0.94076  0.85698
V33   V   0.64302  0.09205  0.55924
V34   V   0.64302  0.44076  0.09205
V35   V   0.64302  0.55924  0.90795
V36   V   0.64302  0.90795  0.44076
V37   V   0.85698  0.05924  0.59205
V38   V   0.85698  0.40795  0.05924
V39   V   0.85698  0.59205  0.94076
V40   V   0.85698  0.94076  0.40795
V41   V   0.90795  0.35698  0.44076
V42   V   0.90795  0.44076  0.64302
V43   V   0.90795  0.55924  0.35698
V44   V   0.90795  0.64302  0.55924
V45   V   0.94076  0.14302  0.40795
V46   V   0.94076  0.40795  0.85698
V47   V   0.94076  0.59205  0.14302
V48   V   0.94076  0.85698  0.59205
E1    E   0.00000  0.14302  0.50000
E2    E   0.00000  0.35698  0.50000
E3    E   0.00000  0.39887  0.39887
E4    E   0.00000  0.39887  0.60113
E5    E   0.00000  0.50000  0.14302
E6    E   0.00000  0.50000  0.35698
E7    E   0.00000  0.50000  0.64302
E8    E   0.00000  0.50000  0.85698
E9    E   0.00000  0.60113  0.39887
E10   E   0.00000  0.60113  0.60113
E11   E   0.00000  0.64302  0.50000
E12   E   0.00000  0.85698  0.50000
E13   E   0.04189  0.10113  0.40795
E14   E   0.04189  0.40795  0.89887
E15   E   0.04189  0.59205  0.10113
E16   E   0.04189  0.89887  0.59205
E17   E   0.07565  0.25000  0.57565
E18   E   0.07565  0.42435  0.25000
E19   E   0.07565  0.57565  0.75000
E20   E   0.07565  0.75000  0.42435
E21   E   0.09205  0.39887  0.45811
E22   E   0.09205  0.45811  0.60113
E23   E   0.09205  0.54189  0.39887
E24   E   0.09205  0.60113  0.54189
E25   E   0.10113  0.04189  0.59205
E26   E   0.10113  0.10113  0.50000
E27   E   0.10113  0.40795  0.04189
E28   E   0.10113  0.50000  0.10113
E29   E   0.10113  0.50000  0.89887
E30   E   0.10113  0.59205  0.95811
E31   E   0.10113  0.89887  0.50000
E32   E   0.10113  0.95811  0.40795
E33   E   0.14302  0.00000  0.50000
E34   E   0.14302  0.50000  0.00000
E35   E   0.25000  0.07565  0.42435
E36   E   0.25000  0.42435  0.92435
E37   E   0.25000  0.57565  0.07565
E38   E   0.25000  0.92435  0.57565
E39   E   0.35698  0.00000  0.50000
E40   E   0.35698  0.50000  0.00000
E41   E   0.39887  0.00000  0.39887
E42   E   0.39887  0.00000  0.60113
E43   E   0.39887  0.09205  0.54189
E44   E   0.39887  0.39887  0.00000
E45   E   0.39887  0.45811  0.09205
E46   E   0.39887  0.54189  0.90795
E47   E   0.39887  0.60113  0.00000
E48   E   0.39887  0.90795  0.45811
E49   E   0.40795  0.04189  0.10113
E50   E   0.40795  0.10113  0.95811
E51   E   0.40795  0.89887  0.04189
E52   E   0.40795  0.95811  0.89887
E53   E   0.42435  0.07565  0.75000
E54   E   0.42435  0.25000  0.07565
E55   E   0.42435  0.75000  0.92435
E56   E   0.42435  0.92435  0.25000
E57   E   0.45811  0.09205  0.39887
E58   E   0.45811  0.39887  0.90795
E59   E   0.45811  0.60113  0.09205
E60   E   0.45811  0.90795  0.60113
E61   E   0.50000  0.00000  0.14302
E62   E   0.50000  0.00000  0.35698
E63   E   0.50000  0.00000  0.64302
E64   E   0.50000  0.00000  0.85698
E65   E   0.50000  0.10113  0.10113
E66   E   0.50000  0.10113  0.89887
E67   E   0.50000  0.14302  0.00000
E68   E   0.50000  0.35698  0.00000
E69   E   0.50000  0.64302  0.00000
E70   E   0.50000  0.85698  0.00000
E71   E   0.50000  0.89887  0.10113
E72   E   0.50000  0.89887  0.89887
E73   E   0.54189  0.09205  0.60113
E74   E   0.54189  0.39887  0.09205
E75   E   0.54189  0.60113  0.90795
E76   E   0.54189  0.90795  0.39887
E77   E   0.57565  0.07565  0.25000
E78   E   0.57565  0.25000  0.92435
E79   E   0.57565  0.75000  0.07565
E80   E   0.57565  0.92435  0.75000
E81   E   0.59205  0.04189  0.89887
E82   E   0.59205  0.10113  0.04189
E83   E   0.59205  0.89887  0.95811
E84   E   0.59205  0.95811  0.10113
E85   E   0.60113  0.00000  0.39887
E86   E   0.60113  0.00000  0.60113
E87   E   0.60113  0.09205  0.45811
E88   E   0.60113  0.39887  0.00000
E89   E   0.60113  0.45811  0.90795
E90   E   0.60113  0.54189  0.09205
E91   E   0.60113  0.60113  0.00000
E92   E   0.60113  0.90795  0.54189
E93   E   0.64302  0.00000  0.50000
E94   E   0.64302  0.50000  0.00000
E95   E   0.75000  0.07565  0.57565
E96   E   0.75000  0.42435  0.07565
E97   E   0.75000  0.57565  0.92435
E98   E   0.75000  0.92435  0.42435
E99   E   0.85698  0.00000  0.50000
E100  E   0.85698  0.50000  0.00000
E101  E   0.89887  0.04189  0.40795
E102  E   0.89887  0.10113  0.50000
E103  E   0.89887  0.40795  0.95811
E104  E   0.89887  0.50000  0.10113
E105  E   0.89887  0.50000  0.89887
E106  E   0.89887  0.59205  0.04189
E107  E   0.89887  0.89887  0.50000
E108  E   0.89887  0.95811  0.59205
E109  E   0.90795  0.39887  0.54189
E110  E   0.90795  0.45811  0.39887
E111  E   0.90795  0.54189  0.60113
E112  E   0.90795  0.60113  0.45811
E113  E   0.92435  0.25000  0.42435
E114  E   0.92435  0.42435  0.75000
E115  E   0.92435  0.57565  0.25000
E116  E   0.92435  0.75000  0.57565
E117  E   0.95811  0.10113  0.59205
E118  E   0.95811  0.40795  0.10113
E119  E   0.95811  0.59205  0.89887
E120  E   0.95811  0.89887  0.40795
loop_
