data_fcj_P4332  hall_number: 508, V_con: 5
_audit_creation_date              2025-03-06
_audit_creation_method            'MOFbuilder_1.0'
_symmetry_space_group_name_H-M    'P1'
_symmetry_Int_Tables_number       1
_symmetry_cell_setting            triclinic
loop_
_symmetry_equiv_pos_as_xyz
  x,y,z
_cell_length_a                    30.6229
_cell_length_b                    30.6229
_cell_length_c                    30.6229
_cell_angle_alpha                 90.0
_cell_angle_beta                  90.0
_cell_angle_gamma                 90.0
loop_
_atom_site_label
_atom_site_type_symbol
_atom_site_fract_x
_atom_site_fract_y
_atom_site_fract_z
V1    V   0.04484  0.15721  0.89163
V2    V   0.09279  0.20516  0.35837
V3    V   0.10837  0.54484  0.34279
V4    V   0.14163  0.90721  0.70516
V5    V   0.15721  0.89163  0.04484
V6    V   0.20516  0.35837  0.09279
V7    V   0.29484  0.64163  0.59279
V8    V   0.34279  0.10837  0.54484
V9    V   0.35837  0.09279  0.20516
V10   V   0.39163  0.45516  0.84279
V11   V   0.40721  0.79484  0.85837
V12   V   0.45516  0.84279  0.39163
V13   V   0.54484  0.34279  0.10837
V14   V   0.59279  0.29484  0.64163
V15   V   0.60837  0.95516  0.65721
V16   V   0.64163  0.59279  0.29484
V17   V   0.65721  0.60837  0.95516
V18   V   0.70516  0.14163  0.90721
V19   V   0.79484  0.85837  0.40721
V20   V   0.84279  0.39163  0.45516
V21   V   0.85837  0.40721  0.79484
V22   V   0.89163  0.04484  0.15721
V23   V   0.90721  0.70516  0.14163
V24   V   0.95516  0.65721  0.60837
E1    E   0.00779  0.62500  0.24221
E2    E   0.00779  0.62500  0.24221
E3    E   0.02442  0.96823  0.10102
E4    E   0.03177  0.60102  0.47558
E5    E   0.03221  0.79839  0.09323
E6    E   0.04839  0.78221  0.65677
E7    E   0.09323  0.03221  0.79839
E8    E   0.10102  0.02442  0.96823
E9    E   0.12500  0.25779  0.99221
E10   E   0.14898  0.28177  0.22558
E11   E   0.15677  0.45161  0.21779
E12   E   0.20161  0.59323  0.46779
E13   E   0.21779  0.15677  0.45161
E14   E   0.21823  0.77442  0.64898
E15   E   0.22558  0.14898  0.28177
E16   E   0.24221  0.00779  0.62500
E17   E   0.24221  0.00779  0.62500
E18   E   0.25779  0.99221  0.12500
E19   E   0.27442  0.85102  0.78177
E20   E   0.28177  0.22558  0.14898
E21   E   0.28221  0.84323  0.95161
E22   E   0.29839  0.40677  0.96779
E23   E   0.34323  0.54839  0.71779
E24   E   0.35102  0.71823  0.72558
E25   E   0.37500  0.74221  0.49221
E26   E   0.39898  0.97558  0.46823
E27   E   0.40677  0.96779  0.29839
E28   E   0.45161  0.21779  0.15677
E29   E   0.46779  0.20161  0.59323
E30   E   0.46823  0.39898  0.97558
E31   E   0.47558  0.03177  0.60102
E32   E   0.49221  0.37500  0.74221
E33   E   0.50779  0.87500  0.75779
E34   E   0.52442  0.53177  0.89898
E35   E   0.53177  0.89898  0.52442
E36   E   0.53221  0.70161  0.90677
E37   E   0.54839  0.71779  0.34323
E38   E   0.59323  0.46779  0.20161
E39   E   0.60102  0.47558  0.03177
E40   E   0.62500  0.24221  0.00779
E41   E   0.62500  0.24221  0.00779
E42   E   0.64898  0.21823  0.77442
E43   E   0.65677  0.04839  0.78221
E44   E   0.70161  0.90677  0.53221
E45   E   0.71779  0.34323  0.54839
E46   E   0.71823  0.72558  0.35102
E47   E   0.72558  0.35102  0.71823
E48   E   0.74221  0.49221  0.37500
E49   E   0.75779  0.50779  0.87500
E50   E   0.77442  0.64898  0.21823
E51   E   0.78177  0.27442  0.85102
E52   E   0.78221  0.65677  0.04839
E53   E   0.79839  0.09323  0.03221
E54   E   0.84323  0.95161  0.28221
E55   E   0.85102  0.78177  0.27442
E56   E   0.87500  0.75779  0.50779
E57   E   0.89898  0.52442  0.53177
E58   E   0.90677  0.53221  0.70161
E59   E   0.95161  0.28221  0.84323
E60   E   0.96779  0.29839  0.40677
E61   E   0.96823  0.10102  0.02442
E62   E   0.97558  0.46823  0.39898
E63   E   0.99221  0.12500  0.25779
loop_
