data_fcp_P-43n  hall_number: 514, V_con: 5
_audit_creation_date              2025-03-06
_audit_creation_method            'MOFbuilder_1.0'
_symmetry_space_group_name_H-M    'P1'
_symmetry_Int_Tables_number       1
_symmetry_cell_setting            triclinic
loop_
_symmetry_equiv_pos_as_xyz
  x,y,z
_cell_length_a                    30.5139
_cell_length_b                    30.5139
_cell_length_c                    30.5139
_cell_angle_alpha                 90.0
_cell_angle_beta                  90.0
_cell_angle_gamma                 90.0
loop_
_atom_site_label
_atom_site_type_symbol
_atom_site_fract_x
_atom_site_fract_y
_atom_site_fract_z
V1    V   0.05905  0.32298  0.15285
V2    V   0.05905  0.67702  0.84715
V3    V   0.15285  0.05905  0.32298
V4    V   0.15285  0.94095  0.67702
V5    V   0.17702  0.44095  0.65285
V6    V   0.17702  0.55905  0.34715
V7    V   0.32298  0.15285  0.05905
V8    V   0.32298  0.84715  0.94095
V9    V   0.34715  0.17702  0.55905
V10   V   0.34715  0.82298  0.44095
V11   V   0.44095  0.34715  0.82298
V12   V   0.44095  0.65285  0.17702
V13   V   0.55905  0.34715  0.17702
V14   V   0.55905  0.65285  0.82298
V15   V   0.65285  0.17702  0.44095
V16   V   0.65285  0.82298  0.55905
V17   V   0.67702  0.15285  0.94095
V18   V   0.67702  0.84715  0.05905
V19   V   0.82298  0.44095  0.34715
V20   V   0.82298  0.55905  0.65285
V21   V   0.84715  0.05905  0.67702
V22   V   0.84715  0.94095  0.32298
V23   V   0.94095  0.32298  0.84715
V24   V   0.94095  0.67702  0.15285
E1    E   0.00000  0.00000  0.32298
E2    E   0.00000  0.00000  0.67702
E3    E   0.00000  0.32298  0.00000
E4    E   0.00000  0.67702  0.00000
E5    E   0.05899  0.38196  0.75000
E6    E   0.05899  0.61804  0.25000
E7    E   0.10595  0.19101  0.23791
E8    E   0.10595  0.80899  0.76209
E9    E   0.11804  0.44101  0.25000
E10   E   0.11804  0.55899  0.75000
E11   E   0.17702  0.50000  0.50000
E12   E   0.19101  0.23791  0.10595
E13   E   0.19101  0.76209  0.89405
E14   E   0.23791  0.10595  0.19101
E15   E   0.23791  0.89405  0.80899
E16   E   0.25000  0.05899  0.61804
E17   E   0.25000  0.11804  0.44101
E18   E   0.25000  0.88196  0.55899
E19   E   0.25000  0.94101  0.38196
E20   E   0.26209  0.30899  0.60595
E21   E   0.26209  0.69101  0.39405
E22   E   0.30899  0.39405  0.73791
E23   E   0.30899  0.60595  0.26209
E24   E   0.32298  0.00000  0.00000
E25   E   0.38196  0.25000  0.94101
E26   E   0.38196  0.75000  0.05899
E27   E   0.39405  0.26209  0.69101
E28   E   0.39405  0.73791  0.30899
E29   E   0.44101  0.25000  0.11804
E30   E   0.44101  0.75000  0.88196
E31   E   0.50000  0.17702  0.50000
E32   E   0.50000  0.50000  0.17702
E33   E   0.50000  0.50000  0.82298
E34   E   0.50000  0.82298  0.50000
E35   E   0.55899  0.25000  0.88196
E36   E   0.55899  0.75000  0.11804
E37   E   0.60595  0.26209  0.30899
E38   E   0.60595  0.73791  0.69101
E39   E   0.61804  0.25000  0.05899
E40   E   0.61804  0.75000  0.94101
E41   E   0.67702  0.00000  0.00000
E42   E   0.69101  0.39405  0.26209
E43   E   0.69101  0.60595  0.73791
E44   E   0.73791  0.30899  0.39405
E45   E   0.73791  0.69101  0.60595
E46   E   0.75000  0.05899  0.38196
E47   E   0.75000  0.11804  0.55899
E48   E   0.75000  0.88196  0.44101
E49   E   0.75000  0.94101  0.61804
E50   E   0.76209  0.10595  0.80899
E51   E   0.76209  0.89405  0.19101
E52   E   0.80899  0.23791  0.89405
E53   E   0.80899  0.76209  0.10595
E54   E   0.82298  0.50000  0.50000
E55   E   0.88196  0.44101  0.75000
E56   E   0.88196  0.55899  0.25000
E57   E   0.89405  0.19101  0.76209
E58   E   0.89405  0.80899  0.23791
E59   E   0.94101  0.38196  0.25000
E60   E   0.94101  0.61804  0.75000
loop_
