data_fcv_Fd-3c:2  hall_number: 528, V_con: 5
_audit_creation_date              2025-03-06
_audit_creation_method            'MOFbuilder_1.0'
_symmetry_space_group_name_H-M    'P1'
_symmetry_Int_Tables_number       1
_symmetry_cell_setting            triclinic
loop_
_symmetry_equiv_pos_as_xyz
  x,y,z
_cell_length_a                    72.638
_cell_length_b                    72.638
_cell_length_c                    72.638
_cell_angle_alpha                 90.0
_cell_angle_beta                  90.0
_cell_angle_gamma                 90.0
loop_
_atom_site_label
_atom_site_type_symbol
_atom_site_fract_x
_atom_site_fract_y
_atom_site_fract_z
V1    V   0.04700  0.07504  0.39617
V2    V   0.04700  0.17496  0.85383
V3    V   0.04700  0.35383  0.17496
V4    V   0.04700  0.39617  0.57504
V5    V   0.04700  0.57504  0.89617
V6    V   0.04700  0.67496  0.35383
V7    V   0.04700  0.85383  0.67496
V8    V   0.04700  0.89617  0.07504
V9    V   0.07504  0.04700  0.89617
V10   V   0.07504  0.20300  0.35383
V11   V   0.07504  0.35383  0.70300
V12   V   0.07504  0.39617  0.04700
V13   V   0.07504  0.54700  0.39617
V14   V   0.07504  0.70300  0.85383
V15   V   0.07504  0.85383  0.20300
V16   V   0.07504  0.89617  0.54700
V17   V   0.10383  0.29700  0.82504
V18   V   0.10383  0.32504  0.29700
V19   V   0.10383  0.42496  0.45300
V20   V   0.10383  0.45300  0.92496
V21   V   0.10383  0.79700  0.32504
V22   V   0.10383  0.82504  0.79700
V23   V   0.10383  0.92496  0.95300
V24   V   0.10383  0.95300  0.42496
V25   V   0.14617  0.29700  0.42496
V26   V   0.14617  0.32504  0.95300
V27   V   0.14617  0.42496  0.79700
V28   V   0.14617  0.45300  0.32504
V29   V   0.14617  0.79700  0.92496
V30   V   0.14617  0.82504  0.45300
V31   V   0.14617  0.92496  0.29700
V32   V   0.14617  0.95300  0.82504
V33   V   0.17496  0.04700  0.35383
V34   V   0.17496  0.20300  0.89617
V35   V   0.17496  0.35383  0.54700
V36   V   0.17496  0.39617  0.20300
V37   V   0.17496  0.54700  0.85383
V38   V   0.17496  0.70300  0.39617
V39   V   0.17496  0.85383  0.04700
V40   V   0.17496  0.89617  0.70300
V41   V   0.20300  0.07504  0.85383
V42   V   0.20300  0.17496  0.39617
V43   V   0.20300  0.35383  0.07504
V44   V   0.20300  0.39617  0.67496
V45   V   0.20300  0.57504  0.35383
V46   V   0.20300  0.67496  0.89617
V47   V   0.20300  0.85383  0.57504
V48   V   0.20300  0.89617  0.17496
V49   V   0.29700  0.10383  0.32504
V50   V   0.29700  0.14617  0.92496
V51   V   0.29700  0.32504  0.60383
V52   V   0.29700  0.42496  0.14617
V53   V   0.29700  0.60383  0.82504
V54   V   0.29700  0.64617  0.42496
V55   V   0.29700  0.82504  0.10383
V56   V   0.29700  0.92496  0.64617
V57   V   0.32504  0.10383  0.79700
V58   V   0.32504  0.14617  0.45300
V59   V   0.32504  0.29700  0.10383
V60   V   0.32504  0.45300  0.64617
V61   V   0.32504  0.60383  0.29700
V62   V   0.32504  0.64617  0.95300
V63   V   0.32504  0.79700  0.60383
V64   V   0.32504  0.95300  0.14617
V65   V   0.35383  0.04700  0.67496
V66   V   0.35383  0.07504  0.20300
V67   V   0.35383  0.17496  0.04700
V68   V   0.35383  0.20300  0.57504
V69   V   0.35383  0.54700  0.17496
V70   V   0.35383  0.57504  0.70300
V71   V   0.35383  0.67496  0.54700
V72   V   0.35383  0.70300  0.07504
V73   V   0.39617  0.04700  0.07504
V74   V   0.39617  0.07504  0.54700
V75   V   0.39617  0.17496  0.70300
V76   V   0.39617  0.20300  0.17496
V77   V   0.39617  0.54700  0.57504
V78   V   0.39617  0.57504  0.04700
V79   V   0.39617  0.67496  0.20300
V80   V   0.39617  0.70300  0.67496
V81   V   0.42496  0.10383  0.95300
V82   V   0.42496  0.14617  0.29700
V83   V   0.42496  0.29700  0.64617
V84   V   0.42496  0.45300  0.10383
V85   V   0.42496  0.60383  0.45300
V86   V   0.42496  0.64617  0.79700
V87   V   0.42496  0.79700  0.14617
V88   V   0.42496  0.95300  0.60383
V89   V   0.45300  0.10383  0.42496
V90   V   0.45300  0.14617  0.82504
V91   V   0.45300  0.32504  0.14617
V92   V   0.45300  0.42496  0.60383
V93   V   0.45300  0.60383  0.92496
V94   V   0.45300  0.64617  0.32504
V95   V   0.45300  0.82504  0.64617
V96   V   0.45300  0.92496  0.10383
V97   V   0.54700  0.07504  0.89617
V98   V   0.54700  0.17496  0.35383
V99   V   0.54700  0.35383  0.67496
V100  V   0.54700  0.39617  0.07504
V101  V   0.54700  0.57504  0.39617
V102  V   0.54700  0.67496  0.85383
V103  V   0.54700  0.85383  0.17496
V104  V   0.54700  0.89617  0.57504
V105  V   0.57504  0.04700  0.39617
V106  V   0.57504  0.20300  0.85383
V107  V   0.57504  0.35383  0.20300
V108  V   0.57504  0.39617  0.54700
V109  V   0.57504  0.54700  0.89617
V110  V   0.57504  0.70300  0.35383
V111  V   0.57504  0.85383  0.70300
V112  V   0.57504  0.89617  0.04700
V113  V   0.60383  0.29700  0.32504
V114  V   0.60383  0.32504  0.79700
V115  V   0.60383  0.42496  0.95300
V116  V   0.60383  0.45300  0.42496
V117  V   0.60383  0.79700  0.82504
V118  V   0.60383  0.82504  0.29700
V119  V   0.60383  0.92496  0.45300
V120  V   0.60383  0.95300  0.92496
V121  V   0.64617  0.29700  0.92496
V122  V   0.64617  0.32504  0.45300
V123  V   0.64617  0.42496  0.29700
V124  V   0.64617  0.45300  0.82504
V125  V   0.64617  0.79700  0.42496
V126  V   0.64617  0.82504  0.95300
V127  V   0.64617  0.92496  0.79700
V128  V   0.64617  0.95300  0.32504
V129  V   0.67496  0.04700  0.85383
V130  V   0.67496  0.20300  0.39617
V131  V   0.67496  0.35383  0.04700
V132  V   0.67496  0.39617  0.70300
V133  V   0.67496  0.54700  0.35383
V134  V   0.67496  0.70300  0.89617
V135  V   0.67496  0.85383  0.54700
V136  V   0.67496  0.89617  0.20300
V137  V   0.70300  0.07504  0.35383
V138  V   0.70300  0.17496  0.89617
V139  V   0.70300  0.35383  0.57504
V140  V   0.70300  0.39617  0.17496
V141  V   0.70300  0.57504  0.85383
V142  V   0.70300  0.67496  0.39617
V143  V   0.70300  0.85383  0.07504
V144  V   0.70300  0.89617  0.67496
V145  V   0.79700  0.10383  0.82504
V146  V   0.79700  0.14617  0.42496
V147  V   0.79700  0.32504  0.10383
V148  V   0.79700  0.42496  0.64617
V149  V   0.79700  0.60383  0.32504
V150  V   0.79700  0.64617  0.92496
V151  V   0.79700  0.82504  0.60383
V152  V   0.79700  0.92496  0.14617
V153  V   0.82504  0.10383  0.29700
V154  V   0.82504  0.14617  0.95300
V155  V   0.82504  0.29700  0.60383
V156  V   0.82504  0.45300  0.14617
V157  V   0.82504  0.60383  0.79700
V158  V   0.82504  0.64617  0.45300
V159  V   0.82504  0.79700  0.10383
V160  V   0.82504  0.95300  0.64617
V161  V   0.85383  0.04700  0.17496
V162  V   0.85383  0.07504  0.70300
V163  V   0.85383  0.17496  0.54700
V164  V   0.85383  0.20300  0.07504
V165  V   0.85383  0.54700  0.67496
V166  V   0.85383  0.57504  0.20300
V167  V   0.85383  0.67496  0.04700
V168  V   0.85383  0.70300  0.57504
V169  V   0.89617  0.04700  0.57504
V170  V   0.89617  0.07504  0.04700
V171  V   0.89617  0.17496  0.20300
V172  V   0.89617  0.20300  0.67496
V173  V   0.89617  0.54700  0.07504
V174  V   0.89617  0.57504  0.54700
V175  V   0.89617  0.67496  0.70300
V176  V   0.89617  0.70300  0.17496
V177  V   0.92496  0.10383  0.45300
V178  V   0.92496  0.14617  0.79700
V179  V   0.92496  0.29700  0.14617
V180  V   0.92496  0.45300  0.60383
V181  V   0.92496  0.60383  0.95300
V182  V   0.92496  0.64617  0.29700
V183  V   0.92496  0.79700  0.64617
V184  V   0.92496  0.95300  0.10383
V185  V   0.95300  0.10383  0.92496
V186  V   0.95300  0.14617  0.32504
V187  V   0.95300  0.32504  0.64617
V188  V   0.95300  0.42496  0.10383
V189  V   0.95300  0.60383  0.42496
V190  V   0.95300  0.64617  0.82504
V191  V   0.95300  0.82504  0.14617
V192  V   0.95300  0.92496  0.60383
E1    E   0.00000  0.11061  0.36061
E2    E   0.00000  0.11061  0.36061
E3    E   0.00000  0.13939  0.88939
E4    E   0.00000  0.13939  0.88939
E5    E   0.00000  0.36061  0.61061
E6    E   0.00000  0.38939  0.13939
E7    E   0.00000  0.38939  0.13939
E8    E   0.00000  0.61061  0.86061
E9    E   0.00000  0.63939  0.38939
E10   E   0.00000  0.86061  0.11061
E11   E   0.00000  0.86061  0.11061
E12   E   0.00000  0.88939  0.63939
E13   E   0.01402  0.07541  0.91056
E14   E   0.01402  0.17459  0.33944
E15   E   0.01402  0.33944  0.67459
E16   E   0.01402  0.41056  0.07541
E17   E   0.01402  0.57541  0.41056
E18   E   0.01402  0.67459  0.83944
E19   E   0.01402  0.83944  0.17459
E20   E   0.01402  0.91056  0.57541
E21   E   0.06102  0.11098  0.87500
E22   E   0.06102  0.13902  0.37500
E23   E   0.06102  0.37500  0.11098
E24   E   0.06102  0.37500  0.63902
E25   E   0.06102  0.61098  0.37500
E26   E   0.06102  0.63902  0.87500
E27   E   0.06102  0.87500  0.13902
E28   E   0.06102  0.87500  0.61098
E29   E   0.07541  0.01402  0.41056
E30   E   0.07541  0.23598  0.83944
E31   E   0.07541  0.33944  0.23598
E32   E   0.07541  0.41056  0.51402
E33   E   0.07541  0.51402  0.91056
E34   E   0.07541  0.73598  0.33944
E35   E   0.07541  0.83944  0.73598
E36   E   0.07541  0.91056  0.01402
E37   E   0.08944  0.26402  0.32541
E38   E   0.08944  0.32541  0.76402
E39   E   0.08944  0.42459  0.98598
E40   E   0.08944  0.48598  0.42459
E41   E   0.08944  0.76402  0.82541
E42   E   0.08944  0.82541  0.26402
E43   E   0.08944  0.92459  0.48598
E44   E   0.08944  0.98598  0.92459
E45   E   0.11061  0.00000  0.86061
E46   E   0.11061  0.25000  0.38939
E47   E   0.11061  0.36061  0.00000
E48   E   0.11061  0.38939  0.75000
E49   E   0.11061  0.50000  0.36061
E50   E   0.11061  0.75000  0.88939
E51   E   0.11061  0.86061  0.50000
E52   E   0.11061  0.88939  0.25000
E53   E   0.11061  0.00000  0.86061
E54   E   0.11061  0.25000  0.38939
E55   E   0.11061  0.36061  0.00000
E56   E   0.11061  0.38939  0.75000
E57   E   0.11061  0.50000  0.36061
E58   E   0.11061  0.75000  0.88939
E59   E   0.11061  0.86061  0.50000
E60   E   0.11061  0.88939  0.25000
E61   E   0.11098  0.06102  0.37500
E62   E   0.11098  0.18898  0.87500
E63   E   0.11098  0.37500  0.18898
E64   E   0.11098  0.37500  0.56102
E65   E   0.11098  0.56102  0.87500
E66   E   0.11098  0.68898  0.37500
E67   E   0.11098  0.87500  0.06102
E68   E   0.11098  0.87500  0.68898
E69   E   0.12500  0.31102  0.36098
E70   E   0.12500  0.31102  0.88902
E71   E   0.12500  0.36098  0.43898
E72   E   0.12500  0.36098  0.81102
E73   E   0.12500  0.38902  0.31102
E74   E   0.12500  0.38902  0.93898
E75   E   0.12500  0.43898  0.38902
E76   E   0.12500  0.43898  0.86098
E77   E   0.12500  0.81102  0.38902
E78   E   0.12500  0.81102  0.86098
E79   E   0.12500  0.86098  0.31102
E80   E   0.12500  0.86098  0.93898
E81   E   0.12500  0.88902  0.43898
E82   E   0.12500  0.88902  0.81102
E83   E   0.12500  0.93898  0.36098
E84   E   0.12500  0.93898  0.88902
E85   E   0.13902  0.06102  0.87500
E86   E   0.13902  0.18898  0.37500
E87   E   0.13902  0.37500  0.06102
E88   E   0.13902  0.37500  0.68898
E89   E   0.13902  0.56102  0.37500
E90   E   0.13902  0.68898  0.87500
E91   E   0.13902  0.87500  0.18898
E92   E   0.13902  0.87500  0.56102
E93   E   0.13939  0.00000  0.38939
E94   E   0.13939  0.25000  0.86061
E95   E   0.13939  0.36061  0.25000
E96   E   0.13939  0.38939  0.50000
E97   E   0.13939  0.50000  0.88939
E98   E   0.13939  0.75000  0.36061
E99   E   0.13939  0.86061  0.75000
E100  E   0.13939  0.88939  0.00000
E101  E   0.13939  0.00000  0.38939
E102  E   0.13939  0.25000  0.86061
E103  E   0.13939  0.36061  0.25000
E104  E   0.13939  0.38939  0.50000
E105  E   0.13939  0.50000  0.88939
E106  E   0.13939  0.75000  0.36061
E107  E   0.13939  0.86061  0.75000
E108  E   0.13939  0.88939  0.00000
E109  E   0.16056  0.26402  0.92459
E110  E   0.16056  0.32541  0.48598
E111  E   0.16056  0.42459  0.26402
E112  E   0.16056  0.48598  0.82541
E113  E   0.16056  0.76402  0.42459
E114  E   0.16056  0.82541  0.98598
E115  E   0.16056  0.92459  0.76402
E116  E   0.16056  0.98598  0.32541
E117  E   0.17459  0.01402  0.83944
E118  E   0.17459  0.23598  0.41056
E119  E   0.17459  0.33944  0.01402
E120  E   0.17459  0.41056  0.73598
E121  E   0.17459  0.51402  0.33944
E122  E   0.17459  0.73598  0.91056
E123  E   0.17459  0.83944  0.51402
E124  E   0.17459  0.91056  0.23598
E125  E   0.18898  0.11098  0.37500
E126  E   0.18898  0.13902  0.87500
E127  E   0.18898  0.37500  0.13902
E128  E   0.18898  0.37500  0.61098
E129  E   0.18898  0.61098  0.87500
E130  E   0.18898  0.63902  0.37500
E131  E   0.18898  0.87500  0.11098
E132  E   0.18898  0.87500  0.63902
E133  E   0.23598  0.07541  0.33944
E134  E   0.23598  0.17459  0.91056
E135  E   0.23598  0.33944  0.57541
E136  E   0.23598  0.41056  0.17459
E137  E   0.23598  0.57541  0.83944
E138  E   0.23598  0.67459  0.41056
E139  E   0.23598  0.83944  0.07541
E140  E   0.23598  0.91056  0.67459
E141  E   0.25000  0.11061  0.88939
E142  E   0.25000  0.11061  0.88939
E143  E   0.25000  0.13939  0.36061
E144  E   0.25000  0.13939  0.36061
E145  E   0.25000  0.36061  0.63939
E146  E   0.25000  0.38939  0.11061
E147  E   0.25000  0.38939  0.11061
E148  E   0.25000  0.61061  0.38939
E149  E   0.25000  0.63939  0.86061
E150  E   0.25000  0.86061  0.13939
E151  E   0.25000  0.86061  0.13939
E152  E   0.25000  0.88939  0.61061
E153  E   0.26402  0.08944  0.82541
E154  E   0.26402  0.16056  0.42459
E155  E   0.26402  0.32541  0.08944
E156  E   0.26402  0.42459  0.66056
E157  E   0.26402  0.58944  0.32541
E158  E   0.26402  0.66056  0.92459
E159  E   0.26402  0.82541  0.58944
E160  E   0.26402  0.92459  0.16056
E161  E   0.31102  0.12500  0.38902
E162  E   0.31102  0.12500  0.86098
E163  E   0.31102  0.36098  0.12500
E164  E   0.31102  0.38902  0.62500
E165  E   0.31102  0.62500  0.36098
E166  E   0.31102  0.62500  0.88902
E167  E   0.31102  0.86098  0.62500
E168  E   0.31102  0.88902  0.12500
E169  E   0.32541  0.08944  0.26402
E170  E   0.32541  0.16056  0.98598
E171  E   0.32541  0.26402  0.58944
E172  E   0.32541  0.48598  0.16056
E173  E   0.32541  0.58944  0.76402
E174  E   0.32541  0.66056  0.48598
E175  E   0.32541  0.76402  0.08944
E176  E   0.32541  0.98598  0.66056
E177  E   0.33944  0.01402  0.17459
E178  E   0.33944  0.07541  0.73598
E179  E   0.33944  0.17459  0.51402
E180  E   0.33944  0.23598  0.07541
E181  E   0.33944  0.51402  0.67459
E182  E   0.33944  0.57541  0.23598
E183  E   0.33944  0.67459  0.01402
E184  E   0.33944  0.73598  0.57541
E185  E   0.36061  0.00000  0.11061
E186  E   0.36061  0.00000  0.11061
E187  E   0.36061  0.11061  0.50000
E188  E   0.36061  0.11061  0.50000
E189  E   0.36061  0.13939  0.75000
E190  E   0.36061  0.13939  0.75000
E191  E   0.36061  0.25000  0.13939
E192  E   0.36061  0.25000  0.13939
E193  E   0.36061  0.50000  0.61061
E194  E   0.36061  0.61061  0.00000
E195  E   0.36061  0.63939  0.25000
E196  E   0.36061  0.75000  0.63939
E197  E   0.36098  0.12500  0.31102
E198  E   0.36098  0.12500  0.93898
E199  E   0.36098  0.31102  0.62500
E200  E   0.36098  0.43898  0.12500
E201  E   0.36098  0.62500  0.43898
E202  E   0.36098  0.62500  0.81102
E203  E   0.36098  0.81102  0.12500
E204  E   0.36098  0.93898  0.62500
E205  E   0.37500  0.06102  0.13902
E206  E   0.37500  0.06102  0.61098
E207  E   0.37500  0.11098  0.06102
E208  E   0.37500  0.11098  0.68898
E209  E   0.37500  0.13902  0.18898
E210  E   0.37500  0.13902  0.56102
E211  E   0.37500  0.18898  0.11098
E212  E   0.37500  0.18898  0.63902
E213  E   0.37500  0.56102  0.11098
E214  E   0.37500  0.56102  0.63902
E215  E   0.37500  0.61098  0.18898
E216  E   0.37500  0.61098  0.56102
E217  E   0.37500  0.63902  0.06102
E218  E   0.37500  0.63902  0.68898
E219  E   0.37500  0.68898  0.13902
E220  E   0.37500  0.68898  0.61098
E221  E   0.38902  0.12500  0.43898
E222  E   0.38902  0.12500  0.81102
E223  E   0.38902  0.31102  0.12500
E224  E   0.38902  0.43898  0.62500
E225  E   0.38902  0.62500  0.31102
E226  E   0.38902  0.62500  0.93898
E227  E   0.38902  0.81102  0.62500
E228  E   0.38902  0.93898  0.12500
E229  E   0.38939  0.00000  0.63939
E230  E   0.38939  0.11061  0.25000
E231  E   0.38939  0.11061  0.25000
E232  E   0.38939  0.13939  0.00000
E233  E   0.38939  0.13939  0.00000
E234  E   0.38939  0.25000  0.61061
E235  E   0.38939  0.50000  0.13939
E236  E   0.38939  0.50000  0.13939
E237  E   0.38939  0.61061  0.75000
E238  E   0.38939  0.63939  0.50000
E239  E   0.38939  0.75000  0.11061
E240  E   0.38939  0.75000  0.11061
E241  E   0.41056  0.01402  0.57541
E242  E   0.41056  0.07541  0.01402
E243  E   0.41056  0.17459  0.23598
E244  E   0.41056  0.23598  0.67459
E245  E   0.41056  0.51402  0.07541
E246  E   0.41056  0.57541  0.51402
E247  E   0.41056  0.67459  0.73598
E248  E   0.41056  0.73598  0.17459
E249  E   0.42459  0.08944  0.48598
E250  E   0.42459  0.16056  0.76402
E251  E   0.42459  0.26402  0.16056
E252  E   0.42459  0.48598  0.58944
E253  E   0.42459  0.58944  0.98598
E254  E   0.42459  0.66056  0.26402
E255  E   0.42459  0.76402  0.66056
E256  E   0.42459  0.98598  0.08944
E257  E   0.43898  0.12500  0.36098
E258  E   0.43898  0.12500  0.88902
E259  E   0.43898  0.36098  0.62500
E260  E   0.43898  0.38902  0.12500
E261  E   0.43898  0.62500  0.38902
E262  E   0.43898  0.62500  0.86098
E263  E   0.43898  0.86098  0.12500
E264  E   0.43898  0.88902  0.62500
E265  E   0.48598  0.08944  0.92459
E266  E   0.48598  0.16056  0.32541
E267  E   0.48598  0.32541  0.66056
E268  E   0.48598  0.42459  0.08944
E269  E   0.48598  0.58944  0.42459
E270  E   0.48598  0.66056  0.82541
E271  E   0.48598  0.82541  0.16056
E272  E   0.48598  0.92459  0.58944
E273  E   0.50000  0.11061  0.86061
E274  E   0.50000  0.11061  0.86061
E275  E   0.50000  0.13939  0.38939
E276  E   0.50000  0.13939  0.38939
E277  E   0.50000  0.36061  0.11061
E278  E   0.50000  0.36061  0.11061
E279  E   0.50000  0.38939  0.63939
E280  E   0.50000  0.61061  0.36061
E281  E   0.50000  0.63939  0.88939
E282  E   0.50000  0.86061  0.61061
E283  E   0.50000  0.88939  0.13939
E284  E   0.50000  0.88939  0.13939
E285  E   0.51402  0.07541  0.41056
E286  E   0.51402  0.17459  0.83944
E287  E   0.51402  0.33944  0.17459
E288  E   0.51402  0.41056  0.57541
E289  E   0.51402  0.57541  0.91056
E290  E   0.51402  0.67459  0.33944
E291  E   0.51402  0.83944  0.67459
E292  E   0.51402  0.91056  0.07541
E293  E   0.56102  0.11098  0.37500
E294  E   0.56102  0.13902  0.87500
E295  E   0.56102  0.37500  0.13902
E296  E   0.56102  0.37500  0.61098
E297  E   0.56102  0.61098  0.87500
E298  E   0.56102  0.63902  0.37500
E299  E   0.56102  0.87500  0.11098
E300  E   0.56102  0.87500  0.63902
E301  E   0.57541  0.01402  0.91056
E302  E   0.57541  0.23598  0.33944
E303  E   0.57541  0.33944  0.73598
E304  E   0.57541  0.41056  0.01402
E305  E   0.57541  0.51402  0.41056
E306  E   0.57541  0.73598  0.83944
E307  E   0.57541  0.83944  0.23598
E308  E   0.57541  0.91056  0.51402
E309  E   0.58944  0.26402  0.82541
E310  E   0.58944  0.32541  0.26402
E311  E   0.58944  0.42459  0.48598
E312  E   0.58944  0.48598  0.92459
E313  E   0.58944  0.76402  0.32541
E314  E   0.58944  0.82541  0.76402
E315  E   0.58944  0.92459  0.98598
E316  E   0.58944  0.98598  0.42459
E317  E   0.61061  0.00000  0.36061
E318  E   0.61061  0.25000  0.88939
E319  E   0.61061  0.36061  0.50000
E320  E   0.61061  0.38939  0.25000
E321  E   0.61061  0.50000  0.86061
E322  E   0.61061  0.75000  0.38939
E323  E   0.61061  0.86061  0.00000
E324  E   0.61061  0.88939  0.75000
E325  E   0.61098  0.06102  0.87500
E326  E   0.61098  0.18898  0.37500
E327  E   0.61098  0.37500  0.06102
E328  E   0.61098  0.37500  0.68898
E329  E   0.61098  0.56102  0.37500
E330  E   0.61098  0.68898  0.87500
E331  E   0.61098  0.87500  0.18898
E332  E   0.61098  0.87500  0.56102
E333  E   0.62500  0.31102  0.38902
E334  E   0.62500  0.31102  0.86098
E335  E   0.62500  0.36098  0.31102
E336  E   0.62500  0.36098  0.93898
E337  E   0.62500  0.38902  0.43898
E338  E   0.62500  0.38902  0.81102
E339  E   0.62500  0.43898  0.36098
E340  E   0.62500  0.43898  0.88902
E341  E   0.62500  0.81102  0.36098
E342  E   0.62500  0.81102  0.88902
E343  E   0.62500  0.86098  0.43898
E344  E   0.62500  0.86098  0.81102
E345  E   0.62500  0.88902  0.31102
E346  E   0.62500  0.88902  0.93898
E347  E   0.62500  0.93898  0.38902
E348  E   0.62500  0.93898  0.86098
E349  E   0.63902  0.06102  0.37500
E350  E   0.63902  0.18898  0.87500
E351  E   0.63902  0.37500  0.18898
E352  E   0.63902  0.37500  0.56102
E353  E   0.63902  0.56102  0.87500
E354  E   0.63902  0.68898  0.37500
E355  E   0.63902  0.87500  0.06102
E356  E   0.63902  0.87500  0.68898
E357  E   0.63939  0.00000  0.88939
E358  E   0.63939  0.25000  0.36061
E359  E   0.63939  0.36061  0.75000
E360  E   0.63939  0.38939  0.00000
E361  E   0.63939  0.50000  0.38939
E362  E   0.63939  0.75000  0.86061
E363  E   0.63939  0.86061  0.25000
E364  E   0.63939  0.88939  0.50000
E365  E   0.66056  0.26402  0.42459
E366  E   0.66056  0.32541  0.98598
E367  E   0.66056  0.42459  0.76402
E368  E   0.66056  0.48598  0.32541
E369  E   0.66056  0.76402  0.92459
E370  E   0.66056  0.82541  0.48598
E371  E   0.66056  0.92459  0.26402
E372  E   0.66056  0.98598  0.82541
E373  E   0.67459  0.01402  0.33944
E374  E   0.67459  0.23598  0.91056
E375  E   0.67459  0.33944  0.51402
E376  E   0.67459  0.41056  0.23598
E377  E   0.67459  0.51402  0.83944
E378  E   0.67459  0.73598  0.41056
E379  E   0.67459  0.83944  0.01402
E380  E   0.67459  0.91056  0.73598
E381  E   0.68898  0.11098  0.87500
E382  E   0.68898  0.13902  0.37500
E383  E   0.68898  0.37500  0.11098
E384  E   0.68898  0.37500  0.63902
E385  E   0.68898  0.61098  0.37500
E386  E   0.68898  0.63902  0.87500
E387  E   0.68898  0.87500  0.13902
E388  E   0.68898  0.87500  0.61098
E389  E   0.73598  0.07541  0.83944
E390  E   0.73598  0.17459  0.41056
E391  E   0.73598  0.33944  0.07541
E392  E   0.73598  0.41056  0.67459
E393  E   0.73598  0.57541  0.33944
E394  E   0.73598  0.67459  0.91056
E395  E   0.73598  0.83944  0.57541
E396  E   0.73598  0.91056  0.17459
E397  E   0.75000  0.11061  0.38939
E398  E   0.75000  0.11061  0.38939
E399  E   0.75000  0.13939  0.86061
E400  E   0.75000  0.13939  0.86061
E401  E   0.75000  0.36061  0.13939
E402  E   0.75000  0.36061  0.13939
E403  E   0.75000  0.38939  0.61061
E404  E   0.75000  0.61061  0.88939
E405  E   0.75000  0.63939  0.36061
E406  E   0.75000  0.86061  0.63939
E407  E   0.75000  0.88939  0.11061
E408  E   0.75000  0.88939  0.11061
E409  E   0.76402  0.08944  0.32541
E410  E   0.76402  0.16056  0.92459
E411  E   0.76402  0.32541  0.58944
E412  E   0.76402  0.42459  0.16056
E413  E   0.76402  0.58944  0.82541
E414  E   0.76402  0.66056  0.42459
E415  E   0.76402  0.82541  0.08944
E416  E   0.76402  0.92459  0.66056
E417  E   0.81102  0.12500  0.36098
E418  E   0.81102  0.12500  0.88902
E419  E   0.81102  0.36098  0.62500
E420  E   0.81102  0.38902  0.12500
E421  E   0.81102  0.62500  0.38902
E422  E   0.81102  0.62500  0.86098
E423  E   0.81102  0.86098  0.12500
E424  E   0.81102  0.88902  0.62500
E425  E   0.82541  0.08944  0.76402
E426  E   0.82541  0.16056  0.48598
E427  E   0.82541  0.26402  0.08944
E428  E   0.82541  0.48598  0.66056
E429  E   0.82541  0.58944  0.26402
E430  E   0.82541  0.66056  0.98598
E431  E   0.82541  0.76402  0.58944
E432  E   0.82541  0.98598  0.16056
E433  E   0.83944  0.01402  0.67459
E434  E   0.83944  0.07541  0.23598
E435  E   0.83944  0.17459  0.01402
E436  E   0.83944  0.23598  0.57541
E437  E   0.83944  0.51402  0.17459
E438  E   0.83944  0.57541  0.73598
E439  E   0.83944  0.67459  0.51402
E440  E   0.83944  0.73598  0.07541
E441  E   0.86061  0.00000  0.61061
E442  E   0.86061  0.11061  0.00000
E443  E   0.86061  0.11061  0.00000
E444  E   0.86061  0.13939  0.25000
E445  E   0.86061  0.13939  0.25000
E446  E   0.86061  0.25000  0.63939
E447  E   0.86061  0.50000  0.11061
E448  E   0.86061  0.50000  0.11061
E449  E   0.86061  0.61061  0.50000
E450  E   0.86061  0.63939  0.75000
E451  E   0.86061  0.75000  0.13939
E452  E   0.86061  0.75000  0.13939
E453  E   0.86098  0.12500  0.43898
E454  E   0.86098  0.12500  0.81102
E455  E   0.86098  0.31102  0.12500
E456  E   0.86098  0.43898  0.62500
E457  E   0.86098  0.62500  0.31102
E458  E   0.86098  0.62500  0.93898
E459  E   0.86098  0.81102  0.62500
E460  E   0.86098  0.93898  0.12500
E461  E   0.87500  0.06102  0.11098
E462  E   0.87500  0.06102  0.63902
E463  E   0.87500  0.11098  0.18898
E464  E   0.87500  0.11098  0.56102
E465  E   0.87500  0.13902  0.06102
E466  E   0.87500  0.13902  0.68898
E467  E   0.87500  0.18898  0.13902
E468  E   0.87500  0.18898  0.61098
E469  E   0.87500  0.56102  0.13902
E470  E   0.87500  0.56102  0.61098
E471  E   0.87500  0.61098  0.06102
E472  E   0.87500  0.61098  0.68898
E473  E   0.87500  0.63902  0.18898
E474  E   0.87500  0.63902  0.56102
E475  E   0.87500  0.68898  0.11098
E476  E   0.87500  0.68898  0.63902
E477  E   0.88902  0.12500  0.31102
E478  E   0.88902  0.12500  0.93898
E479  E   0.88902  0.31102  0.62500
E480  E   0.88902  0.43898  0.12500
E481  E   0.88902  0.62500  0.43898
E482  E   0.88902  0.62500  0.81102
E483  E   0.88902  0.81102  0.12500
E484  E   0.88902  0.93898  0.62500
E485  E   0.88939  0.00000  0.13939
E486  E   0.88939  0.00000  0.13939
E487  E   0.88939  0.11061  0.75000
E488  E   0.88939  0.11061  0.75000
E489  E   0.88939  0.13939  0.50000
E490  E   0.88939  0.13939  0.50000
E491  E   0.88939  0.25000  0.11061
E492  E   0.88939  0.25000  0.11061
E493  E   0.88939  0.50000  0.63939
E494  E   0.88939  0.61061  0.25000
E495  E   0.88939  0.63939  0.00000
E496  E   0.88939  0.75000  0.61061
E497  E   0.91056  0.01402  0.07541
E498  E   0.91056  0.07541  0.51402
E499  E   0.91056  0.17459  0.73598
E500  E   0.91056  0.23598  0.17459
E501  E   0.91056  0.51402  0.57541
E502  E   0.91056  0.57541  0.01402
E503  E   0.91056  0.67459  0.23598
E504  E   0.91056  0.73598  0.67459
E505  E   0.92459  0.08944  0.98598
E506  E   0.92459  0.16056  0.26402
E507  E   0.92459  0.26402  0.66056
E508  E   0.92459  0.48598  0.08944
E509  E   0.92459  0.58944  0.48598
E510  E   0.92459  0.66056  0.76402
E511  E   0.92459  0.76402  0.16056
E512  E   0.92459  0.98598  0.58944
E513  E   0.93898  0.12500  0.38902
E514  E   0.93898  0.12500  0.86098
E515  E   0.93898  0.36098  0.12500
E516  E   0.93898  0.38902  0.62500
E517  E   0.93898  0.62500  0.36098
E518  E   0.93898  0.62500  0.88902
E519  E   0.93898  0.86098  0.62500
E520  E   0.93898  0.88902  0.12500
E521  E   0.98598  0.08944  0.42459
E522  E   0.98598  0.16056  0.82541
E523  E   0.98598  0.32541  0.16056
E524  E   0.98598  0.42459  0.58944
E525  E   0.98598  0.58944  0.92459
E526  E   0.98598  0.66056  0.32541
E527  E   0.98598  0.82541  0.66056
E528  E   0.98598  0.92459  0.08944
loop_
