data_fcy_Ia-3d  hall_number: 530, V_con: 5
_audit_creation_date              2025-03-06
_audit_creation_method            'MOFbuilder_1.0'
_symmetry_space_group_name_H-M    'P1'
_symmetry_Int_Tables_number       1
_symmetry_cell_setting            triclinic
loop_
_symmetry_equiv_pos_as_xyz
  x,y,z
_cell_length_a                    57.365500000000004
_cell_length_b                    57.365500000000004
_cell_length_c                    57.365500000000004
_cell_angle_alpha                 90.0
_cell_angle_beta                  90.0
_cell_angle_gamma                 90.0
loop_
_atom_site_label
_atom_site_type_symbol
_atom_site_fract_x
_atom_site_fract_y
_atom_site_fract_z
V1    V   0.03843  0.14098  0.40527
V2    V   0.03843  0.35902  0.90527
V3    V   0.03843  0.64098  0.59473
V4    V   0.03843  0.85902  0.09473
V5    V   0.09473  0.03843  0.85902
V6    V   0.09473  0.46157  0.35902
V7    V   0.09473  0.53843  0.14098
V8    V   0.09473  0.96157  0.64098
V9    V   0.10902  0.21157  0.84473
V10   V   0.10902  0.28843  0.34473
V11   V   0.10902  0.71157  0.15527
V12   V   0.10902  0.78843  0.65527
V13   V   0.14098  0.09473  0.53843
V14   V   0.14098  0.40527  0.03843
V15   V   0.14098  0.59473  0.46157
V16   V   0.14098  0.90527  0.96157
V17   V   0.15527  0.10902  0.71157
V18   V   0.15527  0.39098  0.21157
V19   V   0.15527  0.60902  0.28843
V20   V   0.15527  0.89098  0.78843
V21   V   0.21157  0.15527  0.39098
V22   V   0.21157  0.34473  0.89098
V23   V   0.21157  0.65527  0.60902
V24   V   0.21157  0.84473  0.10902
V25   V   0.28843  0.15527  0.60902
V26   V   0.28843  0.34473  0.10902
V27   V   0.28843  0.65527  0.39098
V28   V   0.28843  0.84473  0.89098
V29   V   0.34473  0.10902  0.28843
V30   V   0.34473  0.39098  0.78843
V31   V   0.34473  0.60902  0.71157
V32   V   0.34473  0.89098  0.21157
V33   V   0.35902  0.09473  0.46157
V34   V   0.35902  0.40527  0.96157
V35   V   0.35902  0.59473  0.53843
V36   V   0.35902  0.90527  0.03843
V37   V   0.39098  0.21157  0.15527
V38   V   0.39098  0.28843  0.65527
V39   V   0.39098  0.71157  0.84473
V40   V   0.39098  0.78843  0.34473
V41   V   0.40527  0.03843  0.14098
V42   V   0.40527  0.46157  0.64098
V43   V   0.40527  0.53843  0.85902
V44   V   0.40527  0.96157  0.35902
V45   V   0.46157  0.14098  0.59473
V46   V   0.46157  0.35902  0.09473
V47   V   0.46157  0.64098  0.40527
V48   V   0.46157  0.85902  0.90527
V49   V   0.53843  0.14098  0.09473
V50   V   0.53843  0.35902  0.59473
V51   V   0.53843  0.64098  0.90527
V52   V   0.53843  0.85902  0.40527
V53   V   0.59473  0.03843  0.64098
V54   V   0.59473  0.46157  0.14098
V55   V   0.59473  0.53843  0.35902
V56   V   0.59473  0.96157  0.85902
V57   V   0.60902  0.21157  0.65527
V58   V   0.60902  0.28843  0.15527
V59   V   0.60902  0.71157  0.34473
V60   V   0.60902  0.78843  0.84473
V61   V   0.64098  0.09473  0.96157
V62   V   0.64098  0.40527  0.46157
V63   V   0.64098  0.59473  0.03843
V64   V   0.64098  0.90527  0.53843
V65   V   0.65527  0.10902  0.78843
V66   V   0.65527  0.39098  0.28843
V67   V   0.65527  0.60902  0.21157
V68   V   0.65527  0.89098  0.71157
V69   V   0.71157  0.15527  0.10902
V70   V   0.71157  0.34473  0.60902
V71   V   0.71157  0.65527  0.89098
V72   V   0.71157  0.84473  0.39098
V73   V   0.78843  0.15527  0.89098
V74   V   0.78843  0.34473  0.39098
V75   V   0.78843  0.65527  0.10902
V76   V   0.78843  0.84473  0.60902
V77   V   0.84473  0.10902  0.21157
V78   V   0.84473  0.39098  0.71157
V79   V   0.84473  0.60902  0.78843
V80   V   0.84473  0.89098  0.28843
V81   V   0.85902  0.09473  0.03843
V82   V   0.85902  0.40527  0.53843
V83   V   0.85902  0.59473  0.96157
V84   V   0.85902  0.90527  0.46157
V85   V   0.89098  0.21157  0.34473
V86   V   0.89098  0.28843  0.84473
V87   V   0.89098  0.71157  0.65527
V88   V   0.89098  0.78843  0.15527
V89   V   0.90527  0.03843  0.35902
V90   V   0.90527  0.46157  0.85902
V91   V   0.90527  0.53843  0.64098
V92   V   0.90527  0.96157  0.14098
V93   V   0.96157  0.14098  0.90527
V94   V   0.96157  0.35902  0.40527
V95   V   0.96157  0.64098  0.09473
V96   V   0.96157  0.85902  0.59473
E1    E   0.02815  0.08970  0.88214
E2    E   0.02815  0.41030  0.38214
E3    E   0.02815  0.58970  0.11786
E4    E   0.02815  0.91030  0.61786
E5    E   0.03530  0.17628  0.87500
E6    E   0.03530  0.32372  0.37500
E7    E   0.03530  0.67628  0.12500
E8    E   0.03530  0.82372  0.62500
E9    E   0.07372  0.21470  0.37500
E10   E   0.07372  0.28530  0.87500
E11   E   0.07372  0.71470  0.62500
E12   E   0.07372  0.78530  0.12500
E13   E   0.08970  0.11786  0.47185
E14   E   0.08970  0.38214  0.97185
E15   E   0.08970  0.61786  0.52815
E16   E   0.08970  0.88214  0.02815
E17   E   0.10187  0.12500  0.85187
E18   E   0.10187  0.37500  0.35187
E19   E   0.10187  0.62500  0.14813
E20   E   0.10187  0.87500  0.64813
E21   E   0.10187  0.12500  0.85187
E22   E   0.10187  0.37500  0.35187
E23   E   0.10187  0.62500  0.14813
E24   E   0.10187  0.87500  0.64813
E25   E   0.11786  0.02815  0.58970
E26   E   0.11786  0.47185  0.08970
E27   E   0.11786  0.52815  0.41030
E28   E   0.11786  0.97185  0.91030
E29   E   0.12500  0.03530  0.67628
E30   E   0.12500  0.07372  0.78530
E31   E   0.12500  0.14813  0.39813
E32   E   0.12500  0.14813  0.39813
E33   E   0.12500  0.35187  0.89813
E34   E   0.12500  0.42628  0.28530
E35   E   0.12500  0.46470  0.17628
E36   E   0.12500  0.53530  0.32372
E37   E   0.12500  0.57372  0.21470
E38   E   0.12500  0.64813  0.60187
E39   E   0.12500  0.85187  0.10187
E40   E   0.12500  0.85187  0.10187
E41   E   0.12500  0.92628  0.71470
E42   E   0.12500  0.96470  0.82372
E43   E   0.13214  0.16030  0.77815
E44   E   0.13214  0.33970  0.27815
E45   E   0.13214  0.66030  0.22185
E46   E   0.13214  0.83970  0.72185
E47   E   0.14813  0.10187  0.62500
E48   E   0.14813  0.39813  0.12500
E49   E   0.14813  0.60187  0.37500
E50   E   0.14813  0.89813  0.87500
E51   E   0.14813  0.10187  0.62500
E52   E   0.14813  0.39813  0.12500
E53   E   0.14813  0.60187  0.37500
E54   E   0.14813  0.89813  0.87500
E55   E   0.16030  0.22185  0.36786
E56   E   0.16030  0.27815  0.86786
E57   E   0.16030  0.72185  0.63214
E58   E   0.16030  0.77815  0.13214
E59   E   0.17628  0.12500  0.46470
E60   E   0.17628  0.37500  0.96470
E61   E   0.17628  0.62500  0.53530
E62   E   0.17628  0.87500  0.03530
E63   E   0.21470  0.12500  0.57372
E64   E   0.21470  0.37500  0.07372
E65   E   0.21470  0.62500  0.42628
E66   E   0.21470  0.87500  0.92628
E67   E   0.22185  0.13214  0.66030
E68   E   0.22185  0.36786  0.16030
E69   E   0.22185  0.63214  0.33970
E70   E   0.22185  0.86786  0.83970
E71   E   0.27815  0.13214  0.33970
E72   E   0.27815  0.36786  0.83970
E73   E   0.27815  0.63214  0.66030
E74   E   0.27815  0.86786  0.16030
E75   E   0.28530  0.12500  0.42628
E76   E   0.28530  0.37500  0.92628
E77   E   0.28530  0.62500  0.57372
E78   E   0.28530  0.87500  0.07372
E79   E   0.32372  0.12500  0.53530
E80   E   0.32372  0.37500  0.03530
E81   E   0.32372  0.62500  0.46470
E82   E   0.32372  0.87500  0.96470
E83   E   0.33970  0.22185  0.63214
E84   E   0.33970  0.27815  0.13214
E85   E   0.33970  0.72185  0.36786
E86   E   0.33970  0.77815  0.86786
E87   E   0.35187  0.10187  0.37500
E88   E   0.35187  0.10187  0.37500
E89   E   0.35187  0.39813  0.87500
E90   E   0.35187  0.60187  0.62500
E91   E   0.35187  0.89813  0.12500
E92   E   0.36786  0.16030  0.22185
E93   E   0.36786  0.33970  0.72185
E94   E   0.36786  0.66030  0.77815
E95   E   0.36786  0.83970  0.27815
E96   E   0.37500  0.03530  0.32372
E97   E   0.37500  0.07372  0.21470
E98   E   0.37500  0.14813  0.60187
E99   E   0.37500  0.14813  0.60187
E100  E   0.37500  0.35187  0.10187
E101  E   0.37500  0.35187  0.10187
E102  E   0.37500  0.42628  0.71470
E103  E   0.37500  0.46470  0.82372
E104  E   0.37500  0.53530  0.67628
E105  E   0.37500  0.57372  0.78530
E106  E   0.37500  0.64813  0.39813
E107  E   0.37500  0.85187  0.89813
E108  E   0.37500  0.92628  0.28530
E109  E   0.37500  0.96470  0.17628
E110  E   0.38214  0.02815  0.41030
E111  E   0.38214  0.47185  0.91030
E112  E   0.38214  0.52815  0.58970
E113  E   0.38214  0.97185  0.08970
E114  E   0.39813  0.12500  0.14813
E115  E   0.39813  0.12500  0.14813
E116  E   0.39813  0.37500  0.64813
E117  E   0.39813  0.62500  0.85187
E118  E   0.39813  0.87500  0.35187
E119  E   0.41030  0.11786  0.52815
E120  E   0.41030  0.38214  0.02815
E121  E   0.41030  0.61786  0.47185
E122  E   0.41030  0.88214  0.97185
E123  E   0.42628  0.21470  0.62500
E124  E   0.42628  0.28530  0.12500
E125  E   0.42628  0.71470  0.37500
E126  E   0.42628  0.78530  0.87500
E127  E   0.46470  0.17628  0.12500
E128  E   0.46470  0.32372  0.62500
E129  E   0.46470  0.67628  0.87500
E130  E   0.46470  0.82372  0.37500
E131  E   0.47185  0.08970  0.11786
E132  E   0.47185  0.41030  0.61786
E133  E   0.47185  0.58970  0.88214
E134  E   0.47185  0.91030  0.38214
E135  E   0.52815  0.08970  0.61786
E136  E   0.52815  0.41030  0.11786
E137  E   0.52815  0.58970  0.38214
E138  E   0.52815  0.91030  0.88214
E139  E   0.53530  0.17628  0.62500
E140  E   0.53530  0.32372  0.12500
E141  E   0.53530  0.67628  0.37500
E142  E   0.53530  0.82372  0.87500
E143  E   0.57372  0.21470  0.12500
E144  E   0.57372  0.28530  0.62500
E145  E   0.57372  0.71470  0.87500
E146  E   0.57372  0.78530  0.37500
E147  E   0.58970  0.11786  0.02815
E148  E   0.58970  0.38214  0.52815
E149  E   0.58970  0.61786  0.97185
E150  E   0.58970  0.88214  0.47185
E151  E   0.60187  0.12500  0.64813
E152  E   0.60187  0.37500  0.14813
E153  E   0.60187  0.37500  0.14813
E154  E   0.60187  0.62500  0.35187
E155  E   0.60187  0.87500  0.85187
E156  E   0.61786  0.02815  0.91030
E157  E   0.61786  0.47185  0.41030
E158  E   0.61786  0.52815  0.08970
E159  E   0.61786  0.97185  0.58970
E160  E   0.62500  0.03530  0.82372
E161  E   0.62500  0.07372  0.71470
E162  E   0.62500  0.14813  0.10187
E163  E   0.62500  0.14813  0.10187
E164  E   0.62500  0.35187  0.60187
E165  E   0.62500  0.42628  0.21470
E166  E   0.62500  0.46470  0.32372
E167  E   0.62500  0.53530  0.17628
E168  E   0.62500  0.57372  0.28530
E169  E   0.62500  0.64813  0.89813
E170  E   0.62500  0.85187  0.39813
E171  E   0.62500  0.92628  0.78530
E172  E   0.62500  0.96470  0.67628
E173  E   0.63214  0.16030  0.72185
E174  E   0.63214  0.33970  0.22185
E175  E   0.63214  0.66030  0.27815
E176  E   0.63214  0.83970  0.77815
E177  E   0.64813  0.10187  0.87500
E178  E   0.64813  0.10187  0.87500
E179  E   0.64813  0.39813  0.37500
E180  E   0.64813  0.60187  0.12500
E181  E   0.64813  0.89813  0.62500
E182  E   0.66030  0.22185  0.13214
E183  E   0.66030  0.27815  0.63214
E184  E   0.66030  0.72185  0.86786
E185  E   0.66030  0.77815  0.36786
E186  E   0.67628  0.12500  0.03530
E187  E   0.67628  0.37500  0.53530
E188  E   0.67628  0.62500  0.96470
E189  E   0.67628  0.87500  0.46470
E190  E   0.71470  0.12500  0.92628
E191  E   0.71470  0.37500  0.42628
E192  E   0.71470  0.62500  0.07372
E193  E   0.71470  0.87500  0.57372
E194  E   0.72185  0.13214  0.83970
E195  E   0.72185  0.36786  0.33970
E196  E   0.72185  0.63214  0.16030
E197  E   0.72185  0.86786  0.66030
E198  E   0.77815  0.13214  0.16030
E199  E   0.77815  0.36786  0.66030
E200  E   0.77815  0.63214  0.83970
E201  E   0.77815  0.86786  0.33970
E202  E   0.78530  0.12500  0.07372
E203  E   0.78530  0.37500  0.57372
E204  E   0.78530  0.62500  0.92628
E205  E   0.78530  0.87500  0.42628
E206  E   0.82372  0.12500  0.96470
E207  E   0.82372  0.37500  0.46470
E208  E   0.82372  0.62500  0.03530
E209  E   0.82372  0.87500  0.53530
E210  E   0.83970  0.22185  0.86786
E211  E   0.83970  0.27815  0.36786
E212  E   0.83970  0.72185  0.13214
E213  E   0.83970  0.77815  0.63214
E214  E   0.85187  0.10187  0.12500
E215  E   0.85187  0.10187  0.12500
E216  E   0.85187  0.39813  0.62500
E217  E   0.85187  0.60187  0.87500
E218  E   0.85187  0.89813  0.37500
E219  E   0.86786  0.16030  0.27815
E220  E   0.86786  0.33970  0.77815
E221  E   0.86786  0.66030  0.72185
E222  E   0.86786  0.83970  0.22185
E223  E   0.87500  0.03530  0.17628
E224  E   0.87500  0.07372  0.28530
E225  E   0.87500  0.14813  0.89813
E226  E   0.87500  0.14813  0.89813
E227  E   0.87500  0.35187  0.39813
E228  E   0.87500  0.42628  0.78530
E229  E   0.87500  0.46470  0.67628
E230  E   0.87500  0.53530  0.82372
E231  E   0.87500  0.57372  0.71470
E232  E   0.87500  0.64813  0.10187
E233  E   0.87500  0.64813  0.10187
E234  E   0.87500  0.85187  0.60187
E235  E   0.87500  0.92628  0.21470
E236  E   0.87500  0.96470  0.32372
E237  E   0.88214  0.02815  0.08970
E238  E   0.88214  0.47185  0.58970
E239  E   0.88214  0.52815  0.91030
E240  E   0.88214  0.97185  0.41030
E241  E   0.89813  0.12500  0.35187
E242  E   0.89813  0.37500  0.85187
E243  E   0.89813  0.62500  0.64813
E244  E   0.89813  0.87500  0.14813
E245  E   0.89813  0.87500  0.14813
E246  E   0.91030  0.11786  0.97185
E247  E   0.91030  0.38214  0.47185
E248  E   0.91030  0.61786  0.02815
E249  E   0.91030  0.88214  0.52815
E250  E   0.92628  0.21470  0.87500
E251  E   0.92628  0.28530  0.37500
E252  E   0.92628  0.71470  0.12500
E253  E   0.92628  0.78530  0.62500
E254  E   0.96470  0.17628  0.37500
E255  E   0.96470  0.32372  0.87500
E256  E   0.96470  0.67628  0.62500
E257  E   0.96470  0.82372  0.12500
E258  E   0.97185  0.08970  0.38214
E259  E   0.97185  0.41030  0.88214
E260  E   0.97185  0.58970  0.61786
E261  E   0.97185  0.91030  0.11786
loop_
