data_fdb_Pn-3n:2  hall_number: 519, V_con: 5
_audit_creation_date              2025-03-06
_audit_creation_method            'MOFbuilder_1.0'
_symmetry_space_group_name_H-M    'P1'
_symmetry_Int_Tables_number       1
_symmetry_cell_setting            triclinic
loop_
_symmetry_equiv_pos_as_xyz
  x,y,z
_cell_length_a                    37.4657
_cell_length_b                    37.4657
_cell_length_c                    37.4657
_cell_angle_alpha                 90.0
_cell_angle_beta                  90.0
_cell_angle_gamma                 90.0
loop_
_atom_site_label
_atom_site_type_symbol
_atom_site_fract_x
_atom_site_fract_y
_atom_site_fract_z
V1    V   0.06074  0.58247  0.83692
V2    V   0.06074  0.66308  0.58247
V3    V   0.06074  0.83692  0.91753
V4    V   0.06074  0.91753  0.66308
V5    V   0.08247  0.16308  0.56074
V6    V   0.08247  0.33692  0.93926
V7    V   0.08247  0.56074  0.33692
V8    V   0.08247  0.93926  0.16308
V9    V   0.16308  0.08247  0.93926
V10   V   0.16308  0.41753  0.56074
V11   V   0.16308  0.56074  0.08247
V12   V   0.16308  0.93926  0.41753
V13   V   0.33692  0.08247  0.56074
V14   V   0.33692  0.41753  0.93926
V15   V   0.33692  0.56074  0.41753
V16   V   0.33692  0.93926  0.08247
V17   V   0.41753  0.16308  0.93926
V18   V   0.41753  0.33692  0.56074
V19   V   0.41753  0.56074  0.16308
V20   V   0.41753  0.93926  0.33692
V21   V   0.43926  0.58247  0.66308
V22   V   0.43926  0.66308  0.91753
V23   V   0.43926  0.83692  0.58247
V24   V   0.43926  0.91753  0.83692
V25   V   0.56074  0.08247  0.16308
V26   V   0.56074  0.16308  0.41753
V27   V   0.56074  0.33692  0.08247
V28   V   0.56074  0.41753  0.33692
V29   V   0.58247  0.06074  0.66308
V30   V   0.58247  0.43926  0.83692
V31   V   0.58247  0.66308  0.43926
V32   V   0.58247  0.83692  0.06074
V33   V   0.66308  0.06074  0.91753
V34   V   0.66308  0.43926  0.58247
V35   V   0.66308  0.58247  0.06074
V36   V   0.66308  0.91753  0.43926
V37   V   0.83692  0.06074  0.58247
V38   V   0.83692  0.43926  0.91753
V39   V   0.83692  0.58247  0.43926
V40   V   0.83692  0.91753  0.06074
V41   V   0.91753  0.06074  0.83692
V42   V   0.91753  0.43926  0.66308
V43   V   0.91753  0.66308  0.06074
V44   V   0.91753  0.83692  0.43926
V45   V   0.93926  0.08247  0.33692
V46   V   0.93926  0.16308  0.08247
V47   V   0.93926  0.33692  0.41753
V48   V   0.93926  0.41753  0.16308
E1    E   0.01087  0.01087  0.25000
E2    E   0.01087  0.25000  0.01087
E3    E   0.01087  0.25000  0.48913
E4    E   0.01087  0.48913  0.25000
E5    E   0.01087  0.01087  0.25000
E6    E   0.01087  0.25000  0.01087
E7    E   0.01087  0.25000  0.48913
E8    E   0.01087  0.48913  0.25000
E9    E   0.04030  0.07161  0.88809
E10   E   0.04030  0.42839  0.61191
E11   E   0.04030  0.61191  0.07161
E12   E   0.04030  0.88809  0.42839
E13   E   0.06074  0.62278  0.70970
E14   E   0.06074  0.70970  0.87722
E15   E   0.06074  0.79030  0.62278
E16   E   0.06074  0.87722  0.79030
E17   E   0.07161  0.04030  0.61191
E18   E   0.07161  0.45970  0.88809
E19   E   0.07161  0.61191  0.45970
E20   E   0.07161  0.88809  0.04030
E21   E   0.11191  0.54030  0.57161
E22   E   0.11191  0.57161  0.95970
E23   E   0.11191  0.92839  0.54030
E24   E   0.11191  0.95970  0.92839
E25   E   0.12278  0.20970  0.93926
E26   E   0.12278  0.29030  0.56074
E27   E   0.12278  0.56074  0.20970
E28   E   0.12278  0.93926  0.29030
E29   E   0.20970  0.12278  0.56074
E30   E   0.20970  0.37722  0.93926
E31   E   0.20970  0.56074  0.37722
E32   E   0.20970  0.93926  0.12278
E33   E   0.25000  0.01087  0.01087
E34   E   0.25000  0.01087  0.48913
E35   E   0.25000  0.01087  0.01087
E36   E   0.25000  0.01087  0.48913
E37   E   0.25000  0.48913  0.01087
E38   E   0.25000  0.48913  0.01087
E39   E   0.25000  0.48913  0.48913
E40   E   0.29030  0.12278  0.93926
E41   E   0.29030  0.37722  0.56074
E42   E   0.29030  0.56074  0.12278
E43   E   0.29030  0.93926  0.37722
E44   E   0.37722  0.20970  0.56074
E45   E   0.37722  0.29030  0.93926
E46   E   0.37722  0.56074  0.29030
E47   E   0.37722  0.93926  0.20970
E48   E   0.38809  0.54030  0.92839
E49   E   0.38809  0.57161  0.54030
E50   E   0.38809  0.92839  0.95970
E51   E   0.38809  0.95970  0.57161
E52   E   0.42839  0.04030  0.88809
E53   E   0.42839  0.45970  0.61191
E54   E   0.42839  0.61191  0.04030
E55   E   0.42839  0.88809  0.45970
E56   E   0.43926  0.62278  0.79030
E57   E   0.43926  0.70970  0.62278
E58   E   0.43926  0.79030  0.87722
E59   E   0.43926  0.87722  0.70970
E60   E   0.45970  0.07161  0.61191
E61   E   0.45970  0.42839  0.88809
E62   E   0.45970  0.61191  0.42839
E63   E   0.45970  0.88809  0.07161
E64   E   0.48913  0.01087  0.25000
E65   E   0.48913  0.01087  0.25000
E66   E   0.48913  0.25000  0.01087
E67   E   0.48913  0.25000  0.01087
E68   E   0.48913  0.25000  0.48913
E69   E   0.48913  0.48913  0.25000
E70   E   0.51087  0.51087  0.75000
E71   E   0.51087  0.75000  0.51087
E72   E   0.51087  0.75000  0.98913
E73   E   0.51087  0.98913  0.75000
E74   E   0.51087  0.51087  0.75000
E75   E   0.51087  0.75000  0.51087
E76   E   0.51087  0.75000  0.98913
E77   E   0.51087  0.98913  0.75000
E78   E   0.54030  0.11191  0.92839
E79   E   0.54030  0.38809  0.57161
E80   E   0.54030  0.57161  0.11191
E81   E   0.54030  0.92839  0.38809
E82   E   0.56074  0.12278  0.29030
E83   E   0.56074  0.20970  0.12278
E84   E   0.56074  0.29030  0.37722
E85   E   0.56074  0.37722  0.20970
E86   E   0.57161  0.11191  0.54030
E87   E   0.57161  0.38809  0.95970
E88   E   0.57161  0.54030  0.38809
E89   E   0.57161  0.95970  0.11191
E90   E   0.61191  0.04030  0.42839
E91   E   0.61191  0.07161  0.04030
E92   E   0.61191  0.42839  0.45970
E93   E   0.61191  0.45970  0.07161
E94   E   0.62278  0.06074  0.79030
E95   E   0.62278  0.43926  0.70970
E96   E   0.62278  0.70970  0.06074
E97   E   0.62278  0.79030  0.43926
E98   E   0.70970  0.06074  0.62278
E99   E   0.70970  0.43926  0.87722
E100  E   0.70970  0.62278  0.43926
E101  E   0.70970  0.87722  0.06074
E102  E   0.75000  0.51087  0.51087
E103  E   0.75000  0.51087  0.98913
E104  E   0.75000  0.51087  0.51087
E105  E   0.75000  0.51087  0.98913
E106  E   0.75000  0.98913  0.51087
E107  E   0.75000  0.98913  0.98913
E108  E   0.75000  0.98913  0.51087
E109  E   0.75000  0.98913  0.98913
E110  E   0.79030  0.06074  0.87722
E111  E   0.79030  0.43926  0.62278
E112  E   0.79030  0.62278  0.06074
E113  E   0.79030  0.87722  0.43926
E114  E   0.87722  0.06074  0.70970
E115  E   0.87722  0.43926  0.79030
E116  E   0.87722  0.70970  0.43926
E117  E   0.87722  0.79030  0.06074
E118  E   0.88809  0.04030  0.07161
E119  E   0.88809  0.07161  0.45970
E120  E   0.88809  0.42839  0.04030
E121  E   0.88809  0.45970  0.42839
E122  E   0.92839  0.11191  0.95970
E123  E   0.92839  0.38809  0.54030
E124  E   0.92839  0.54030  0.11191
E125  E   0.92839  0.95970  0.38809
E126  E   0.93926  0.12278  0.20970
E127  E   0.93926  0.20970  0.37722
E128  E   0.93926  0.29030  0.12278
E129  E   0.93926  0.37722  0.29030
E130  E   0.95970  0.11191  0.57161
E131  E   0.95970  0.38809  0.92839
E132  E   0.95970  0.57161  0.38809
E133  E   0.95970  0.92839  0.11191
E134  E   0.98913  0.51087  0.75000
E135  E   0.98913  0.75000  0.51087
E136  E   0.98913  0.75000  0.98913
E137  E   0.98913  0.98913  0.75000
E138  E   0.98913  0.51087  0.75000
E139  E   0.98913  0.75000  0.51087
E140  E   0.98913  0.75000  0.98913
E141  E   0.98913  0.98913  0.75000
loop_
