data_fne_P6222  hall_number: 474, V_con: 5
_audit_creation_date              2025-03-06
_audit_creation_method            'MOFbuilder_1.0'
_symmetry_space_group_name_H-M    'P1'
_symmetry_Int_Tables_number       1
_symmetry_cell_setting            triclinic
loop_
_symmetry_equiv_pos_as_xyz
  x,y,z
_cell_length_a                    28.856099999999998
_cell_length_b                    28.856099999999998
_cell_length_c                    10.0
_cell_angle_alpha                 90.0
_cell_angle_beta                  90.0
_cell_angle_gamma                 120.0
loop_
_atom_site_label
_atom_site_type_symbol
_atom_site_fract_x
_atom_site_fract_y
_atom_site_fract_z
V1    V   0.00000  0.32673  0.66667
V2    V   0.00000  0.67327  0.66667
V3    V   0.32673  0.00000  0.00000
V4    V   0.32673  0.32673  0.33333
V5    V   0.67327  0.00000  0.00000
V6    V   0.67327  0.67327  0.33333
E1    E   0.00000  0.32673  0.16667
E2    E   0.00000  0.32673  0.16667
E3    E   0.00000  0.50000  0.66667
E4    E   0.00000  0.67327  0.16667
E5    E   0.00000  0.67327  0.16667
E6    E   0.16336  0.32673  0.50000
E7    E   0.16336  0.83663  0.83334
E8    E   0.16337  0.32673  0.50000
E9    E   0.16337  0.83664  0.83333
E10   E   0.32673  0.00000  0.50000
E11   E   0.32673  0.16336  0.16667
E12   E   0.32673  0.16337  0.16666
E13   E   0.32673  0.32673  0.83333
E14   E   0.50000  0.00000  0.00000
E15   E   0.50000  0.50000  0.33333
E16   E   0.67327  0.00000  0.50000
E17   E   0.67327  0.67327  0.83333
E18   E   0.67327  0.83663  0.16666
E19   E   0.67327  0.83664  0.16667
E20   E   0.83663  0.16336  0.83333
E21   E   0.83663  0.67327  0.50000
E22   E   0.83664  0.16337  0.83334
E23   E   0.83664  0.67327  0.50000
loop_
