data_fnj_I41/amd:2  hall_number: 427, V_con: 5
_audit_creation_date              2025-03-06
_audit_creation_method            'MOFbuilder_1.0'
_symmetry_space_group_name_H-M    'P1'
_symmetry_Int_Tables_number       1
_symmetry_cell_setting            triclinic
loop_
_symmetry_equiv_pos_as_xyz
  x,y,z
_cell_length_a                    47.385999999999996
_cell_length_b                    47.385999999999996
_cell_length_c                    10.0
_cell_angle_alpha                 90.0
_cell_angle_beta                  90.0
_cell_angle_gamma                 90.0
loop_
_atom_site_label
_atom_site_type_symbol
_atom_site_fract_x
_atom_site_fract_y
_atom_site_fract_z
V1    V   0.10552  0.00000  0.50000
V2    V   0.10552  0.50000  0.50000
V3    V   0.25000  0.14448  0.25000
V4    V   0.25000  0.35552  0.25000
V5    V   0.25000  0.64448  0.75000
V6    V   0.25000  0.85552  0.75000
V7    V   0.39448  0.00000  0.00000
V8    V   0.39448  0.50000  0.00000
V9    V   0.60552  0.00000  0.00000
V10   V   0.60552  0.50000  0.00000
V11   V   0.75000  0.14448  0.25000
V12   V   0.75000  0.35552  0.25000
V13   V   0.75000  0.64448  0.75000
V14   V   0.75000  0.85552  0.75000
V15   V   0.89448  0.00000  0.50000
V16   V   0.89448  0.50000  0.50000
E1    E   0.00000  0.00000  0.50000
E2    E   0.00000  0.50000  0.50000
E3    E   0.10552  0.00000  0.00000
E4    E   0.10552  0.50000  0.00000
E5    E   0.17776  0.07224  0.37500
E6    E   0.17776  0.42776  0.37500
E7    E   0.17776  0.57224  0.62500
E8    E   0.17776  0.92776  0.62500
E9    E   0.17776  0.07224  0.37500
E10   E   0.17776  0.42776  0.37500
E11   E   0.17776  0.57224  0.62500
E12   E   0.17776  0.92776  0.62500
E13   E   0.25000  0.14448  0.75000
E14   E   0.25000  0.25000  0.25000
E15   E   0.25000  0.35552  0.75000
E16   E   0.25000  0.64448  0.25000
E17   E   0.25000  0.75000  0.75000
E18   E   0.25000  0.85552  0.25000
E19   E   0.32224  0.07224  0.12500
E20   E   0.32224  0.42776  0.12500
E21   E   0.32224  0.57224  0.87500
E22   E   0.32224  0.92776  0.87500
E23   E   0.32224  0.07224  0.12500
E24   E   0.32224  0.42776  0.12500
E25   E   0.32224  0.57224  0.87500
E26   E   0.32224  0.92776  0.87500
E27   E   0.39448  0.00000  0.50000
E28   E   0.39448  0.50000  0.50000
E29   E   0.50000  0.00000  0.00000
E30   E   0.50000  0.50000  0.00000
E31   E   0.60552  0.00000  0.50000
E32   E   0.60552  0.50000  0.50000
E33   E   0.67776  0.07224  0.12500
E34   E   0.67776  0.42776  0.12500
E35   E   0.67776  0.57224  0.87500
E36   E   0.67776  0.92776  0.87500
E37   E   0.67776  0.07224  0.12500
E38   E   0.67776  0.42776  0.12500
E39   E   0.67776  0.57224  0.87500
E40   E   0.67776  0.92776  0.87500
E41   E   0.75000  0.14448  0.75000
E42   E   0.75000  0.25000  0.25000
E43   E   0.75000  0.35552  0.75000
E44   E   0.75000  0.64448  0.25000
E45   E   0.75000  0.75000  0.75000
E46   E   0.75000  0.85552  0.25000
E47   E   0.82224  0.07224  0.37500
E48   E   0.82224  0.42776  0.37500
E49   E   0.82224  0.57224  0.62500
E50   E   0.82224  0.92776  0.62500
E51   E   0.82224  0.07224  0.37500
E52   E   0.82224  0.42776  0.37500
E53   E   0.82224  0.57224  0.62500
E54   E   0.82224  0.92776  0.62500
E55   E   0.89448  0.00000  0.00000
E56   E   0.89448  0.50000  0.00000
loop_
