data_fnn_I-43d  hall_number: 516, V_con: 5
_audit_creation_date              2025-03-06
_audit_creation_method            'MOFbuilder_1.0'
_symmetry_space_group_name_H-M    'P1'
_symmetry_Int_Tables_number       1
_symmetry_cell_setting            triclinic
loop_
_symmetry_equiv_pos_as_xyz
  x,y,z
_cell_length_a                    30.380699999999997
_cell_length_b                    30.380699999999997
_cell_length_c                    30.380699999999997
_cell_angle_alpha                 90.0
_cell_angle_beta                  90.0
_cell_angle_gamma                 90.0
loop_
_atom_site_label
_atom_site_type_symbol
_atom_site_fract_x
_atom_site_fract_y
_atom_site_fract_z
V1    V   0.00000  0.25000  0.03958
V2    V   0.00000  0.25000  0.71042
V3    V   0.00000  0.75000  0.46042
V4    V   0.00000  0.75000  0.78958
V5    V   0.03958  0.00000  0.25000
V6    V   0.21042  0.50000  0.75000
V7    V   0.25000  0.03958  0.00000
V8    V   0.25000  0.28958  0.50000
V9    V   0.25000  0.71042  0.00000
V10   V   0.25000  0.96042  0.50000
V11   V   0.28958  0.50000  0.25000
V12   V   0.46042  0.00000  0.75000
V13   V   0.50000  0.25000  0.28958
V14   V   0.50000  0.25000  0.96042
V15   V   0.50000  0.75000  0.21042
V16   V   0.50000  0.75000  0.53958
V17   V   0.53958  0.50000  0.75000
V18   V   0.71042  0.00000  0.25000
V19   V   0.75000  0.21042  0.50000
V20   V   0.75000  0.46042  0.00000
V21   V   0.75000  0.53958  0.50000
V22   V   0.75000  0.78958  0.00000
V23   V   0.78958  0.00000  0.75000
V24   V   0.96042  0.50000  0.25000
E1    E   0.00000  0.25000  0.87500
E2    E   0.00000  0.75000  0.62500
E3    E   0.01979  0.12500  0.14479
E4    E   0.01979  0.87500  0.35521
E5    E   0.10521  0.37500  0.73021
E6    E   0.10521  0.62500  0.76979
E7    E   0.12500  0.14479  0.01979
E8    E   0.12500  0.26979  0.60521
E9    E   0.12500  0.50000  0.25000
E10   E   0.12500  0.73021  0.89479
E11   E   0.12500  0.85521  0.48021
E12   E   0.14479  0.01979  0.12500
E13   E   0.14479  0.98021  0.37500
E14   E   0.23021  0.39479  0.62500
E15   E   0.23021  0.60521  0.87500
E16   E   0.25000  0.12500  0.50000
E17   E   0.25000  0.87500  0.00000
E18   E   0.26979  0.39479  0.37500
E19   E   0.26979  0.60521  0.12500
E20   E   0.35521  0.01979  0.87500
E21   E   0.35521  0.98021  0.62500
E22   E   0.37500  0.14479  0.98021
E23   E   0.37500  0.26979  0.39479
E24   E   0.37500  0.50000  0.75000
E25   E   0.37500  0.73021  0.10521
E26   E   0.37500  0.85521  0.51979
E27   E   0.39479  0.37500  0.26979
E28   E   0.39479  0.62500  0.23021
E29   E   0.48021  0.12500  0.85521
E30   E   0.48021  0.87500  0.64479
E31   E   0.50000  0.25000  0.12500
E32   E   0.50000  0.75000  0.37500
E33   E   0.51979  0.37500  0.85521
E34   E   0.51979  0.62500  0.64479
E35   E   0.60521  0.12500  0.26979
E36   E   0.60521  0.87500  0.23021
E37   E   0.62500  0.00000  0.75000
E38   E   0.62500  0.23021  0.39479
E39   E   0.62500  0.35521  0.98021
E40   E   0.62500  0.64479  0.51979
E41   E   0.62500  0.76979  0.10521
E42   E   0.64479  0.48021  0.87500
E43   E   0.64479  0.51979  0.62500
E44   E   0.73021  0.10521  0.37500
E45   E   0.73021  0.89479  0.12500
E46   E   0.75000  0.37500  0.50000
E47   E   0.75000  0.62500  0.00000
E48   E   0.76979  0.10521  0.62500
E49   E   0.76979  0.89479  0.87500
E50   E   0.85521  0.48021  0.12500
E51   E   0.85521  0.51979  0.37500
E52   E   0.87500  0.00000  0.25000
E53   E   0.87500  0.23021  0.60521
E54   E   0.87500  0.35521  0.01979
E55   E   0.87500  0.64479  0.48021
E56   E   0.87500  0.76979  0.89479
E57   E   0.89479  0.12500  0.73021
E58   E   0.89479  0.87500  0.76979
E59   E   0.98021  0.37500  0.14479
E60   E   0.98021  0.62500  0.35521
loop_
