data_fnt_P6222  hall_number: 474, V_con: 5
_audit_creation_date              2025-03-06
_audit_creation_method            'MOFbuilder_1.0'
_symmetry_space_group_name_H-M    'P1'
_symmetry_Int_Tables_number       1
_symmetry_cell_setting            triclinic
loop_
_symmetry_equiv_pos_as_xyz
  x,y,z
_cell_length_a                    17.320500000000003
_cell_length_b                    17.320500000000003
_cell_length_c                    25.9807
_cell_angle_alpha                 90.0
_cell_angle_beta                  90.0
_cell_angle_gamma                 120.0
loop_
_atom_site_label
_atom_site_type_symbol
_atom_site_fract_x
_atom_site_fract_y
_atom_site_fract_z
V1    V   0.16666  0.33333  0.00000
V2    V   0.16666  0.83333  0.33333
V3    V   0.16667  0.33333  0.00000
V4    V   0.16667  0.83334  0.33333
V5    V   0.33333  0.16666  0.66667
V6    V   0.33333  0.16667  0.66667
V7    V   0.66667  0.83333  0.66667
V8    V   0.66667  0.83334  0.66667
V9    V   0.83333  0.16666  0.33333
V10   V   0.83333  0.66667  0.00000
V11   V   0.83334  0.16667  0.33333
V12   V   0.83334  0.66667  0.00000
E1    E   0.00000  0.00000  0.00000
E2    E   0.00000  0.00000  0.33333
E3    E   0.00000  0.00000  0.66667
E4    E   0.00000  0.25000  0.16666
E5    E   0.00000  0.25000  0.16667
E6    E   0.00000  0.50000  0.00000
E7    E   0.00000  0.50000  0.33333
E8    E   0.00000  0.75000  0.16666
E9    E   0.00000  0.75000  0.16667
E10   E   0.25000  0.00000  0.50000
E11   E   0.25000  0.00000  0.50000
E12   E   0.25000  0.25000  0.83333
E13   E   0.25000  0.25000  0.83334
E14   E   0.50000  0.00000  0.33333
E15   E   0.50000  0.00000  0.66667
E16   E   0.50000  0.50000  0.00000
E17   E   0.50000  0.50000  0.66667
E18   E   0.75000  0.00000  0.50000
E19   E   0.75000  0.00000  0.50000
E20   E   0.75000  0.75000  0.83333
E21   E   0.75000  0.75000  0.83334
loop_
