data_fry_Cmmm  hall_number: 310, V_con: 4, EC_con: 3
_audit_creation_date              2025-03-06
_audit_creation_method            'MOFbuilder_1.0'
_symmetry_space_group_name_H-M    'P1'
_symmetry_Int_Tables_number       1
_symmetry_cell_setting            triclinic
loop_
_symmetry_equiv_pos_as_xyz
  x,y,z
_cell_length_a                    56.7156
_cell_length_b                    18.9357
_cell_length_c                    33.0694
_cell_angle_alpha                 90.0
_cell_angle_beta                  90.0
_cell_angle_gamma                 90.0
loop_
_atom_site_label
_atom_site_type_symbol
_atom_site_fract_x
_atom_site_fract_y
_atom_site_fract_z
V1    V   0.22162  0.50000  0.34880
V2    V   0.22162  0.50000  0.65120
V3    V   0.27838  0.00000  0.34880
V4    V   0.27838  0.00000  0.65120
V5    V   0.72162  0.00000  0.34880
V6    V   0.72162  0.00000  0.65120
V7    V   0.77838  0.50000  0.34880
V8    V   0.77838  0.50000  0.65120
EC1    EC   0.08816  0.50000  0.15120
EC2    EC   0.08816  0.50000  0.84880
EC3    EC   0.41184  0.00000  0.15120
EC4    EC   0.41184  0.00000  0.84880
EC5    EC   0.58816  0.00000  0.15120
EC6    EC   0.58816  0.00000  0.84880
EC7    EC   0.91184  0.50000  0.15120
EC8    EC   0.91184  0.50000  0.84880
E1    E   0.00000  0.50000  0.15120
E2    E   0.00000  0.50000  0.84880
E3    E   0.08816  0.50000  0.00000
E4    E   0.15489  0.50000  0.25000
E5    E   0.15489  0.50000  0.75000
E6    E   0.22162  0.50000  0.50000
E7    E   0.25000  0.25000  0.34880
E8    E   0.25000  0.25000  0.65120
E9    E   0.25000  0.75000  0.34880
E10   E   0.25000  0.75000  0.65120
E11   E   0.27838  0.00000  0.50000
E12   E   0.34511  0.00000  0.25000
E13   E   0.34511  0.00000  0.75000
E14   E   0.41184  0.00000  0.00000
E15   E   0.50000  0.00000  0.15120
E16   E   0.50000  0.00000  0.84880
E17   E   0.58816  0.00000  0.00000
E18   E   0.65489  0.00000  0.25000
E19   E   0.65489  0.00000  0.75000
E20   E   0.72162  0.00000  0.50000
E21   E   0.75000  0.25000  0.34880
E22   E   0.75000  0.25000  0.65120
E23   E   0.75000  0.75000  0.34880
E24   E   0.75000  0.75000  0.65120
E25   E   0.77838  0.50000  0.50000
E26   E   0.84511  0.50000  0.25000
E27   E   0.84511  0.50000  0.75000
E28   E   0.91184  0.50000  0.00000
loop_
