data_fsn_Pa-3  hall_number: 501, V_con: 6, EC_con: 4
_audit_creation_date              2025-03-06
_audit_creation_method            'MOFbuilder_1.0'
_symmetry_space_group_name_H-M    'P1'
_symmetry_Int_Tables_number       1
_symmetry_cell_setting            triclinic
loop_
_symmetry_equiv_pos_as_xyz
  x,y,z
_cell_length_a                    24.030900000000003
_cell_length_b                    24.030900000000003
_cell_length_c                    24.030900000000003
_cell_angle_alpha                 90.0
_cell_angle_beta                  90.0
_cell_angle_gamma                 90.0
loop_
_atom_site_label
_atom_site_type_symbol
_atom_site_fract_x
_atom_site_fract_y
_atom_site_fract_z
V1    V   0.00000  0.00000  0.00000
V2    V   0.00000  0.50000  0.50000
V3    V   0.50000  0.00000  0.50000
V4    V   0.50000  0.50000  0.00000
EC1    EC   0.12013  0.62013  0.87987
EC2    EC   0.12013  0.87987  0.37987
EC3    EC   0.37987  0.12013  0.87987
EC4    EC   0.37987  0.37987  0.37987
EC5    EC   0.62013  0.62013  0.62013
EC6    EC   0.62013  0.87987  0.12013
EC7    EC   0.87987  0.12013  0.62013
EC8    EC   0.87987  0.37987  0.12013
E1    E   0.00000  0.00000  0.50000
E2    E   0.00000  0.50000  0.00000
E3    E   0.06006  0.56006  0.68994
E4    E   0.06006  0.68994  0.43994
E5    E   0.06006  0.81006  0.93994
E6    E   0.06006  0.93994  0.18994
E7    E   0.18994  0.06006  0.93994
E8    E   0.18994  0.43994  0.43994
E9    E   0.31006  0.56006  0.93994
E10   E   0.31006  0.93994  0.43994
E11   E   0.43994  0.06006  0.68994
E12   E   0.43994  0.18994  0.43994
E13   E   0.43994  0.31006  0.93994
E14   E   0.43994  0.43994  0.18994
E15   E   0.50000  0.00000  0.00000
E16   E   0.50000  0.50000  0.50000
E17   E   0.56006  0.56006  0.81006
E18   E   0.56006  0.68994  0.06006
E19   E   0.56006  0.81006  0.56006
E20   E   0.56006  0.93994  0.31006
E21   E   0.68994  0.06006  0.56006
E22   E   0.68994  0.43994  0.06006
E23   E   0.81006  0.56006  0.56006
E24   E   0.81006  0.93994  0.06006
E25   E   0.93994  0.06006  0.81006
E26   E   0.93994  0.18994  0.06006
E27   E   0.93994  0.31006  0.56006
E28   E   0.93994  0.43994  0.31006
loop_
