data_ftc_I41/amd:2  hall_number: 427, V_con: 4, EC_con: 4
_audit_creation_date              2025-03-06
_audit_creation_method            'MOFbuilder_1.0'
_symmetry_space_group_name_H-M    'P1'
_symmetry_Int_Tables_number       1
_symmetry_cell_setting            triclinic
loop_
_symmetry_equiv_pos_as_xyz
  x,y,z
_cell_length_a                    41.8987
_cell_length_b                    41.8987
_cell_length_c                    57.507000000000005
_cell_angle_alpha                 90.0
_cell_angle_beta                  90.0
_cell_angle_gamma                 90.0
loop_
_atom_site_label
_atom_site_type_symbol
_atom_site_fract_x
_atom_site_fract_y
_atom_site_fract_z
V1    V   0.11933  0.13066  0.22191
V2    V   0.11933  0.36934  0.22191
V3    V   0.11933  0.63066  0.77809
V4    V   0.11933  0.86934  0.77809
V5    V   0.11934  0.13067  0.52809
V6    V   0.11934  0.36933  0.52809
V7    V   0.11934  0.63067  0.47191
V8    V   0.11934  0.86933  0.47191
V9    V   0.38066  0.13067  0.97191
V10   V   0.38066  0.36933  0.97191
V11   V   0.38066  0.63067  0.02809
V12   V   0.38066  0.86933  0.02809
V13   V   0.38067  0.13066  0.27809
V14   V   0.38067  0.36934  0.27809
V15   V   0.38067  0.63066  0.72191
V16   V   0.38067  0.86934  0.72191
V17   V   0.61933  0.13066  0.27809
V18   V   0.61933  0.36934  0.27809
V19   V   0.61933  0.63066  0.72191
V20   V   0.61933  0.86934  0.72191
V21   V   0.61934  0.13067  0.97191
V22   V   0.61934  0.36933  0.97191
V23   V   0.61934  0.63067  0.02809
V24   V   0.61934  0.86933  0.02809
V25   V   0.88066  0.13067  0.52809
V26   V   0.88066  0.36933  0.52809
V27   V   0.88066  0.63067  0.47191
V28   V   0.88066  0.86933  0.47191
V29   V   0.88067  0.13066  0.22191
V30   V   0.88067  0.36934  0.22191
V31   V   0.88067  0.63066  0.77809
V32   V   0.88067  0.86934  0.77809
EC1    EC   0.19938  0.05062  0.37500
EC2    EC   0.19938  0.05062  0.37500
EC3    EC   0.19938  0.44938  0.37500
EC4    EC   0.19938  0.55062  0.62500
EC5    EC   0.19938  0.94938  0.62500
EC6    EC   0.30062  0.05062  0.12500
EC7    EC   0.30062  0.05062  0.12500
EC8    EC   0.30062  0.44938  0.12500
EC9    EC   0.30062  0.55062  0.87500
EC10   EC   0.30062  0.94938  0.87500
EC11   EC   0.69938  0.05062  0.12500
EC12   EC   0.69938  0.05062  0.12500
EC13   EC   0.69938  0.44938  0.12500
EC14   EC   0.69938  0.55062  0.87500
EC15   EC   0.69938  0.94938  0.87500
EC16   EC   0.80062  0.05062  0.37500
EC17   EC   0.80062  0.05062  0.37500
EC18   EC   0.80062  0.44938  0.37500
EC19   EC   0.80062  0.55062  0.62500
EC20   EC   0.80062  0.94938  0.62500
E1    E   0.00000  0.13066  0.22191
E2    E   0.00000  0.13067  0.52809
E3    E   0.00000  0.36933  0.52809
E4    E   0.00000  0.36934  0.22191
E5    E   0.00000  0.63066  0.77809
E6    E   0.00000  0.63067  0.47191
E7    E   0.00000  0.86933  0.47191
E8    E   0.00000  0.86934  0.77809
E9    E   0.11933  0.25000  0.22191
E10   E   0.11933  0.75000  0.77809
E11   E   0.11934  0.25000  0.52809
E12   E   0.11934  0.75000  0.47191
E13   E   0.15936  0.04003  0.57654
E14   E   0.15936  0.09064  0.29846
E15   E   0.15936  0.09064  0.45154
E16   E   0.15936  0.40936  0.29846
E17   E   0.15936  0.40936  0.45154
E18   E   0.15936  0.45997  0.57654
E19   E   0.15936  0.54003  0.42346
E20   E   0.15936  0.59064  0.54846
E21   E   0.15936  0.59064  0.70154
E22   E   0.15936  0.90936  0.54846
E23   E   0.15936  0.90936  0.70154
E24   E   0.15936  0.95997  0.42346
E25   E   0.20997  0.09064  0.17346
E26   E   0.20997  0.40936  0.17346
E27   E   0.20997  0.59064  0.82654
E28   E   0.20997  0.90936  0.82654
E29   E   0.29003  0.09064  0.32654
E30   E   0.29003  0.40936  0.32654
E31   E   0.29003  0.59064  0.67346
E32   E   0.29003  0.90936  0.67346
E33   E   0.34064  0.04003  0.92346
E34   E   0.34064  0.09064  0.04846
E35   E   0.34064  0.09064  0.20154
E36   E   0.34064  0.40936  0.04846
E37   E   0.34064  0.40936  0.20154
E38   E   0.34064  0.45997  0.92346
E39   E   0.34064  0.54003  0.07654
E40   E   0.34064  0.59064  0.79846
E41   E   0.34064  0.59064  0.95154
E42   E   0.34064  0.90936  0.79846
E43   E   0.34064  0.90936  0.95154
E44   E   0.34064  0.95997  0.07654
E45   E   0.38066  0.25000  0.97191
E46   E   0.38066  0.75000  0.02809
E47   E   0.38067  0.25000  0.27809
E48   E   0.38067  0.75000  0.72191
E49   E   0.50000  0.13066  0.27809
E50   E   0.50000  0.13067  0.97191
E51   E   0.50000  0.36933  0.97191
E52   E   0.50000  0.36934  0.27809
E53   E   0.50000  0.63066  0.72191
E54   E   0.50000  0.63067  0.02809
E55   E   0.50000  0.86933  0.02809
E56   E   0.50000  0.86934  0.72191
E57   E   0.61933  0.25000  0.27809
E58   E   0.61933  0.75000  0.72191
E59   E   0.61934  0.25000  0.97191
E60   E   0.61934  0.75000  0.02809
E61   E   0.65936  0.04003  0.92346
E62   E   0.65936  0.09064  0.04846
E63   E   0.65936  0.09064  0.20154
E64   E   0.65936  0.40936  0.04846
E65   E   0.65936  0.40936  0.20154
E66   E   0.65936  0.45997  0.92346
E67   E   0.65936  0.54003  0.07654
E68   E   0.65936  0.59064  0.79846
E69   E   0.65936  0.59064  0.95154
E70   E   0.65936  0.90936  0.79846
E71   E   0.65936  0.90936  0.95154
E72   E   0.65936  0.95997  0.07654
E73   E   0.70997  0.09064  0.32654
E74   E   0.70997  0.40936  0.32654
E75   E   0.70997  0.59064  0.67346
E76   E   0.70997  0.90936  0.67346
E77   E   0.79003  0.09064  0.17346
E78   E   0.79003  0.40936  0.17346
E79   E   0.79003  0.59064  0.82654
E80   E   0.79003  0.90936  0.82654
E81   E   0.84064  0.04003  0.57654
E82   E   0.84064  0.09064  0.29846
E83   E   0.84064  0.09064  0.45154
E84   E   0.84064  0.40936  0.29846
E85   E   0.84064  0.40936  0.45154
E86   E   0.84064  0.45997  0.57654
E87   E   0.84064  0.54003  0.42346
E88   E   0.84064  0.59064  0.54846
E89   E   0.84064  0.59064  0.70154
E90   E   0.84064  0.90936  0.54846
E91   E   0.84064  0.90936  0.70154
E92   E   0.84064  0.95997  0.42346
E93   E   0.88066  0.25000  0.52809
E94   E   0.88066  0.75000  0.47191
E95   E   0.88067  0.25000  0.22191
E96   E   0.88067  0.75000  0.77809
loop_
