data_ftd_I41/amd:2  hall_number: 427, V_con: 4, EC_con: 4
_audit_creation_date              2025-03-06
_audit_creation_method            'MOFbuilder_1.0'
_symmetry_space_group_name_H-M    'P1'
_symmetry_Int_Tables_number       1
_symmetry_cell_setting            triclinic
loop_
_symmetry_equiv_pos_as_xyz
  x,y,z
_cell_length_a                    30.9688
_cell_length_b                    30.9688
_cell_length_c                    123.94460000000001
_cell_angle_alpha                 90.0
_cell_angle_beta                  90.0
_cell_angle_gamma                 90.0
loop_
_atom_site_label
_atom_site_type_symbol
_atom_site_fract_x
_atom_site_fract_y
_atom_site_fract_z
V1    V   0.16145  0.08855  0.78373
V2    V   0.16145  0.41145  0.78373
V3    V   0.16145  0.58855  0.21627
V4    V   0.16145  0.91145  0.21627
V5    V   0.16145  0.08855  0.96627
V6    V   0.16145  0.41145  0.96627
V7    V   0.16145  0.58855  0.03373
V8    V   0.16145  0.91145  0.03373
V9    V   0.33855  0.08855  0.53373
V10   V   0.33855  0.41145  0.53373
V11   V   0.33855  0.58855  0.46627
V12   V   0.33855  0.91145  0.46627
V13   V   0.33855  0.08855  0.71627
V14   V   0.33855  0.41145  0.71627
V15   V   0.33855  0.58855  0.28373
V16   V   0.33855  0.91145  0.28373
V17   V   0.66145  0.08855  0.71627
V18   V   0.66145  0.08855  0.53373
V19   V   0.66145  0.41145  0.53373
V20   V   0.66145  0.41145  0.71627
V21   V   0.66145  0.58855  0.28373
V22   V   0.66145  0.58855  0.46627
V23   V   0.66145  0.91145  0.28373
V24   V   0.66145  0.91145  0.46627
V25   V   0.83855  0.08855  0.78373
V26   V   0.83855  0.08855  0.96627
V27   V   0.83855  0.41145  0.78373
V28   V   0.83855  0.41145  0.96627
V29   V   0.83855  0.58855  0.03373
V30   V   0.83855  0.58855  0.21627
V31   V   0.83855  0.91145  0.03373
V32   V   0.83855  0.91145  0.21627
EC1    EC   0.16145  0.08855  0.41534
EC2    EC   0.16145  0.08855  0.33466
EC3    EC   0.16145  0.41145  0.33466
EC4    EC   0.16145  0.41145  0.41534
EC5    EC   0.16145  0.58855  0.58466
EC6    EC   0.16145  0.58855  0.66534
EC7    EC   0.16145  0.91145  0.58466
EC8    EC   0.16145  0.91145  0.66534
EC9    EC   0.33855  0.08855  0.08466
EC10   EC   0.33855  0.08855  0.16534
EC11   EC   0.33855  0.41145  0.08466
EC12   EC   0.33855  0.41145  0.16534
EC13   EC   0.33855  0.58855  0.83466
EC14   EC   0.33855  0.58855  0.91534
EC15   EC   0.33855  0.91145  0.83466
EC16   EC   0.33855  0.91145  0.91534
EC17   EC   0.66145  0.08855  0.08466
EC18   EC   0.66145  0.08855  0.16534
EC19   EC   0.66145  0.41145  0.08466
EC20   EC   0.66145  0.41145  0.16534
EC21   EC   0.66145  0.58855  0.83466
EC22   EC   0.66145  0.58855  0.91534
EC23   EC   0.66145  0.91145  0.83466
EC24   EC   0.66145  0.91145  0.91534
EC25   EC   0.83855  0.08855  0.41534
EC26   EC   0.83855  0.08855  0.33466
EC27   EC   0.83855  0.41145  0.33466
EC28   EC   0.83855  0.41145  0.41534
EC29   EC   0.83855  0.58855  0.58466
EC30   EC   0.83855  0.58855  0.66534
EC31   EC   0.83855  0.91145  0.58466
EC32   EC   0.83855  0.91145  0.66534
E1    E   0.00000  0.08855  0.78373
E2    E   0.00000  0.08855  0.41534
E3    E   0.00000  0.08855  0.33466
E4    E   0.00000  0.08855  0.96627
E5    E   0.00000  0.41145  0.33466
E6    E   0.00000  0.41145  0.41534
E7    E   0.00000  0.41145  0.78373
E8    E   0.00000  0.41145  0.96627
E9    E   0.00000  0.58855  0.03373
E10   E   0.00000  0.58855  0.21627
E11   E   0.00000  0.58855  0.58466
E12   E   0.00000  0.58855  0.66534
E13   E   0.00000  0.91145  0.03373
E14   E   0.00000  0.91145  0.21627
E15   E   0.00000  0.91145  0.58466
E16   E   0.00000  0.91145  0.66534
E17   E   0.16145  0.08855  0.37500
E18   E   0.16145  0.08855  0.37500
E19   E   0.16145  0.25000  0.33466
E20   E   0.16145  0.25000  0.41534
E21   E   0.16145  0.25000  0.78373
E22   E   0.16145  0.41145  0.37500
E23   E   0.16145  0.58855  0.62500
E24   E   0.16145  0.75000  0.21627
E25   E   0.16145  0.75000  0.58466
E26   E   0.16145  0.75000  0.66534
E27   E   0.16145  0.91145  0.62500
E28   E   0.16145  0.00000  0.00000
E29   E   0.16145  0.25000  0.96627
E30   E   0.16145  0.50000  0.00000
E31   E   0.16145  0.75000  0.03373
E32   E   0.25000  0.00000  0.05920
E33   E   0.25000  0.00000  0.19080
E34   E   0.25000  0.00000  0.30920
E35   E   0.25000  0.00000  0.44080
E36   E   0.25000  0.00000  0.55920
E37   E   0.25000  0.00000  0.69080
E38   E   0.25000  0.00000  0.80920
E39   E   0.25000  0.00000  0.94080
E40   E   0.25000  0.08855  0.75000
E41   E   0.25000  0.41145  0.75000
E42   E   0.25000  0.50000  0.05920
E43   E   0.25000  0.50000  0.19080
E44   E   0.25000  0.50000  0.30920
E45   E   0.25000  0.50000  0.44080
E46   E   0.25000  0.50000  0.55920
E47   E   0.25000  0.50000  0.69080
E48   E   0.25000  0.50000  0.80920
E49   E   0.25000  0.50000  0.94080
E50   E   0.25000  0.58855  0.25000
E51   E   0.25000  0.91145  0.25000
E52   E   0.33855  0.00000  0.50000
E53   E   0.33855  0.08855  0.12500
E54   E   0.33855  0.08855  0.12500
E55   E   0.33855  0.25000  0.08466
E56   E   0.33855  0.25000  0.16534
E57   E   0.33855  0.25000  0.53373
E58   E   0.33855  0.41145  0.12500
E59   E   0.33855  0.50000  0.50000
E60   E   0.33855  0.58855  0.87500
E61   E   0.33855  0.75000  0.46627
E62   E   0.33855  0.75000  0.83466
E63   E   0.33855  0.75000  0.91534
E64   E   0.33855  0.91145  0.87500
E65   E   0.33855  0.25000  0.71627
E66   E   0.33855  0.75000  0.28373
E67   E   0.50000  0.08855  0.71627
E68   E   0.50000  0.08855  0.08466
E69   E   0.50000  0.08855  0.16534
E70   E   0.50000  0.08855  0.53373
E71   E   0.50000  0.41145  0.08466
E72   E   0.50000  0.41145  0.16534
E73   E   0.50000  0.41145  0.53373
E74   E   0.50000  0.41145  0.71627
E75   E   0.50000  0.58855  0.28373
E76   E   0.50000  0.58855  0.46627
E77   E   0.50000  0.58855  0.83466
E78   E   0.50000  0.58855  0.91534
E79   E   0.50000  0.91145  0.28373
E80   E   0.50000  0.91145  0.46627
E81   E   0.50000  0.91145  0.83466
E82   E   0.50000  0.91145  0.91534
E83   E   0.66145  0.00000  0.50000
E84   E   0.66145  0.08855  0.12500
E85   E   0.66145  0.08855  0.12500
E86   E   0.66145  0.25000  0.08466
E87   E   0.66145  0.25000  0.16534
E88   E   0.66145  0.25000  0.53373
E89   E   0.66145  0.25000  0.71627
E90   E   0.66145  0.41145  0.12500
E91   E   0.66145  0.50000  0.50000
E92   E   0.66145  0.58855  0.87500
E93   E   0.66145  0.75000  0.28373
E94   E   0.66145  0.75000  0.46627
E95   E   0.66145  0.75000  0.83466
E96   E   0.66145  0.75000  0.91534
E97   E   0.66145  0.91145  0.87500
E98   E   0.75000  0.00000  0.05920
E99   E   0.75000  0.00000  0.19080
E100  E   0.75000  0.00000  0.30920
E101  E   0.75000  0.00000  0.44080
E102  E   0.75000  0.00000  0.55920
E103  E   0.75000  0.00000  0.69080
E104  E   0.75000  0.00000  0.80920
E105  E   0.75000  0.00000  0.94080
E106  E   0.75000  0.08855  0.75000
E107  E   0.75000  0.41145  0.75000
E108  E   0.75000  0.50000  0.05920
E109  E   0.75000  0.50000  0.19080
E110  E   0.75000  0.50000  0.30920
E111  E   0.75000  0.50000  0.44080
E112  E   0.75000  0.50000  0.55920
E113  E   0.75000  0.50000  0.69080
E114  E   0.75000  0.50000  0.80920
E115  E   0.75000  0.50000  0.94080
E116  E   0.75000  0.58855  0.25000
E117  E   0.75000  0.91145  0.25000
E118  E   0.83855  0.00000  0.00000
E119  E   0.83855  0.08855  0.37500
E120  E   0.83855  0.08855  0.37500
E121  E   0.83855  0.25000  0.33466
E122  E   0.83855  0.25000  0.41534
E123  E   0.83855  0.25000  0.78373
E124  E   0.83855  0.25000  0.96627
E125  E   0.83855  0.41145  0.37500
E126  E   0.83855  0.50000  0.00000
E127  E   0.83855  0.58855  0.62500
E128  E   0.83855  0.75000  0.03373
E129  E   0.83855  0.75000  0.21627
E130  E   0.83855  0.75000  0.58466
E131  E   0.83855  0.75000  0.66534
E132  E   0.83855  0.91145  0.62500
loop_
