data_ftf_P63/mcm  hall_number: 487, V_con: 4, EC_con: 4
_audit_creation_date              2025-03-06
_audit_creation_method            'MOFbuilder_1.0'
_symmetry_space_group_name_H-M    'P1'
_symmetry_Int_Tables_number       1
_symmetry_cell_setting            triclinic
loop_
_symmetry_equiv_pos_as_xyz
  x,y,z
_cell_length_a                    60.4525
_cell_length_b                    60.4525
_cell_length_c                    28.2267
_cell_angle_alpha                 90.0
_cell_angle_beta                  90.0
_cell_angle_gamma                 120.0
loop_
_atom_site_label
_atom_site_type_symbol
_atom_site_fract_x
_atom_site_fract_y
_atom_site_fract_z
V1    V   0.18256  0.51589  0.07286
V2    V   0.18256  0.51589  0.42714
V3    V   0.18256  0.66667  0.57286
V4    V   0.18256  0.66667  0.92714
V5    V   0.33333  0.51589  0.57286
V6    V   0.33333  0.51589  0.92714
V7    V   0.33333  0.81744  0.07286
V8    V   0.33333  0.81744  0.42714
V9    V   0.48411  0.66667  0.07286
V10   V   0.48411  0.66667  0.42714
V11   V   0.48411  0.81744  0.57286
V12   V   0.48411  0.81744  0.92714
V13   V   0.51589  0.18256  0.07286
V14   V   0.51589  0.18256  0.42714
V15   V   0.51589  0.33333  0.57286
V16   V   0.51589  0.33333  0.92714
V17   V   0.66667  0.18256  0.57286
V18   V   0.66667  0.18256  0.92714
V19   V   0.66667  0.48411  0.07286
V20   V   0.66667  0.48411  0.42714
V21   V   0.81744  0.33333  0.07286
V22   V   0.81744  0.33333  0.42714
V23   V   0.81744  0.48411  0.57286
V24   V   0.81744  0.48411  0.92714
EC1    EC   0.09551  0.34179  0.57286
EC2    EC   0.09551  0.34179  0.92714
EC3    EC   0.09551  0.75372  0.07286
EC4    EC   0.09551  0.75372  0.42714
EC5    EC   0.24628  0.34179  0.07286
EC6    EC   0.24628  0.34179  0.42714
EC7    EC   0.24628  0.90449  0.57286
EC8    EC   0.24628  0.90449  0.92714
EC9    EC   0.34179  0.09551  0.57286
EC10   EC   0.34179  0.09551  0.92714
EC11   EC   0.34179  0.24628  0.07286
EC12   EC   0.34179  0.24628  0.42714
EC13   EC   0.65821  0.75372  0.57286
EC14   EC   0.65821  0.75372  0.92714
EC15   EC   0.65821  0.90449  0.07286
EC16   EC   0.65821  0.90449  0.42714
EC17   EC   0.75372  0.09551  0.07286
EC18   EC   0.75372  0.09551  0.42714
EC19   EC   0.75372  0.65821  0.57286
EC20   EC   0.75372  0.65821  0.92714
EC21   EC   0.90449  0.24628  0.57286
EC22   EC   0.90449  0.24628  0.92714
EC23   EC   0.90449  0.65821  0.07286
EC24   EC   0.90449  0.65821  0.42714
E1    E   0.00000  0.29404  0.57286
E2    E   0.00000  0.29404  0.92714
E3    E   0.00000  0.70596  0.07286
E4    E   0.00000  0.70596  0.42714
E5    E   0.09551  0.34179  0.75000
E6    E   0.09551  0.75372  0.25000
E7    E   0.13903  0.42884  0.00000
E8    E   0.13903  0.42884  0.50000
E9    E   0.13903  0.71019  0.00000
E10   E   0.13903  0.71019  0.50000
E11   E   0.17089  0.34179  0.00000
E12   E   0.17089  0.34179  0.50000
E13   E   0.17089  0.82910  0.00000
E14   E   0.17089  0.82910  0.50000
E15   E   0.17090  0.34179  0.00000
E16   E   0.17090  0.34179  0.50000
E17   E   0.17090  0.82911  0.00000
E18   E   0.17090  0.82911  0.50000
E19   E   0.18256  0.51589  0.25000
E20   E   0.18256  0.59128  0.00000
E21   E   0.18256  0.59128  0.50000
E22   E   0.18256  0.66667  0.75000
E23   E   0.24628  0.34179  0.25000
E24   E   0.24628  0.90449  0.75000
E25   E   0.25794  0.51589  0.00000
E26   E   0.25794  0.51589  0.50000
E27   E   0.25794  0.74205  0.00000
E28   E   0.25794  0.74205  0.50000
E29   E   0.25795  0.51589  0.00000
E30   E   0.25795  0.51589  0.50000
E31   E   0.25795  0.74206  0.00000
E32   E   0.25795  0.74206  0.50000
E33   E   0.28981  0.42884  0.00000
E34   E   0.28981  0.42884  0.50000
E35   E   0.28981  0.86097  0.00000
E36   E   0.28981  0.86097  0.50000
E37   E   0.29404  0.00000  0.57286
E38   E   0.29404  0.00000  0.92714
E39   E   0.29404  0.29404  0.07286
E40   E   0.29404  0.29404  0.42714
E41   E   0.33333  0.51589  0.75000
E42   E   0.33333  0.81744  0.25000
E43   E   0.34179  0.09551  0.75000
E44   E   0.34179  0.17089  0.00000
E45   E   0.34179  0.17089  0.50000
E46   E   0.34179  0.17090  0.00000
E47   E   0.34179  0.17090  0.50000
E48   E   0.34179  0.24628  0.25000
E49   E   0.40872  0.59128  0.00000
E50   E   0.40872  0.59128  0.50000
E51   E   0.40872  0.81744  0.00000
E52   E   0.40872  0.81744  0.50000
E53   E   0.40872  0.59128  0.00000
E54   E   0.40872  0.59128  0.50000
E55   E   0.40872  0.81744  0.00000
E56   E   0.40872  0.81744  0.50000
E57   E   0.42884  0.13903  0.00000
E58   E   0.42884  0.13903  0.50000
E59   E   0.42884  0.28981  0.00000
E60   E   0.42884  0.28981  0.50000
E61   E   0.48411  0.66667  0.25000
E62   E   0.48411  0.74205  0.00000
E63   E   0.48411  0.74205  0.50000
E64   E   0.48411  0.74206  0.00000
E65   E   0.48411  0.74206  0.50000
E66   E   0.48411  0.81744  0.75000
E67   E   0.51589  0.18256  0.25000
E68   E   0.51589  0.25794  0.00000
E69   E   0.51589  0.25794  0.50000
E70   E   0.51589  0.25795  0.00000
E71   E   0.51589  0.25795  0.50000
E72   E   0.51589  0.33333  0.75000
E73   E   0.57116  0.71019  0.00000
E74   E   0.57116  0.71019  0.50000
E75   E   0.57116  0.86097  0.00000
E76   E   0.57116  0.86097  0.50000
E77   E   0.59128  0.18256  0.00000
E78   E   0.59128  0.18256  0.50000
E79   E   0.59128  0.40872  0.00000
E80   E   0.59128  0.40872  0.50000
E81   E   0.59128  0.40872  0.00000
E82   E   0.59128  0.40872  0.50000
E83   E   0.65821  0.75372  0.75000
E84   E   0.65821  0.82910  0.00000
E85   E   0.65821  0.82910  0.50000
E86   E   0.65821  0.82911  0.00000
E87   E   0.65821  0.82911  0.50000
E88   E   0.65821  0.90449  0.25000
E89   E   0.66667  0.18256  0.75000
E90   E   0.66667  0.48411  0.25000
E91   E   0.70596  0.00000  0.07286
E92   E   0.70596  0.00000  0.42714
E93   E   0.70596  0.70596  0.57286
E94   E   0.70596  0.70596  0.92714
E95   E   0.71019  0.13903  0.00000
E96   E   0.71019  0.13903  0.50000
E97   E   0.71019  0.57116  0.00000
E98   E   0.71019  0.57116  0.50000
E99   E   0.74205  0.25794  0.00000
E100  E   0.74205  0.25794  0.50000
E101  E   0.74205  0.48411  0.00000
E102  E   0.74205  0.48411  0.50000
E103  E   0.74206  0.25795  0.00000
E104  E   0.74206  0.25795  0.50000
E105  E   0.74206  0.48411  0.00000
E106  E   0.74206  0.48411  0.50000
E107  E   0.75372  0.09551  0.25000
E108  E   0.75372  0.65821  0.75000
E109  E   0.81744  0.33333  0.25000
E110  E   0.81744  0.40872  0.00000
E111  E   0.81744  0.40872  0.50000
E112  E   0.81744  0.40872  0.00000
E113  E   0.81744  0.40872  0.50000
E114  E   0.81744  0.48411  0.75000
E115  E   0.82910  0.17089  0.00000
E116  E   0.82910  0.17089  0.50000
E117  E   0.82910  0.65821  0.00000
E118  E   0.82910  0.65821  0.50000
E119  E   0.82911  0.17090  0.00000
E120  E   0.82911  0.17090  0.50000
E121  E   0.82911  0.65821  0.00000
E122  E   0.82911  0.65821  0.50000
E123  E   0.86097  0.28981  0.00000
E124  E   0.86097  0.28981  0.50000
E125  E   0.86097  0.57116  0.00000
E126  E   0.86097  0.57116  0.50000
E127  E   0.90449  0.24628  0.75000
E128  E   0.90449  0.65821  0.25000
loop_
