data_fth_I4/mmm  hall_number: 424, V_con: 4, EC_con: 4
_audit_creation_date              2025-03-06
_audit_creation_method            'MOFbuilder_1.0'
_symmetry_space_group_name_H-M    'P1'
_symmetry_Int_Tables_number       1
_symmetry_cell_setting            triclinic
loop_
_symmetry_equiv_pos_as_xyz
  x,y,z
_cell_length_a                    49.873000000000005
_cell_length_b                    49.873000000000005
_cell_length_c                    64.70139999999999
_cell_angle_alpha                 90.0
_cell_angle_beta                  90.0
_cell_angle_gamma                 90.0
loop_
_atom_site_label
_atom_site_type_symbol
_atom_site_fract_x
_atom_site_fract_y
_atom_site_fract_z
V1    V   0.10025  0.39975  0.17272
V2    V   0.10025  0.39975  0.32728
V3    V   0.10025  0.39975  0.67272
V4    V   0.10025  0.39975  0.82728
V5    V   0.10025  0.60025  0.17272
V6    V   0.10025  0.60025  0.32728
V7    V   0.10025  0.60025  0.67272
V8    V   0.10025  0.60025  0.82728
V9    V   0.39975  0.10025  0.17272
V10   V   0.39975  0.10025  0.32728
V11   V   0.39975  0.10025  0.67272
V12   V   0.39975  0.10025  0.82728
V13   V   0.39975  0.89975  0.17272
V14   V   0.39975  0.89975  0.32728
V15   V   0.39975  0.89975  0.67272
V16   V   0.39975  0.89975  0.82728
V17   V   0.60025  0.10025  0.17272
V18   V   0.60025  0.10025  0.32728
V19   V   0.60025  0.10025  0.67272
V20   V   0.60025  0.10025  0.82728
V21   V   0.60025  0.89975  0.17272
V22   V   0.60025  0.89975  0.32728
V23   V   0.60025  0.89975  0.67272
V24   V   0.60025  0.89975  0.82728
V25   V   0.89975  0.39975  0.17272
V26   V   0.89975  0.39975  0.32728
V27   V   0.89975  0.39975  0.67272
V28   V   0.89975  0.39975  0.82728
V29   V   0.89975  0.60025  0.17272
V30   V   0.89975  0.60025  0.32728
V31   V   0.89975  0.60025  0.67272
V32   V   0.89975  0.60025  0.82728
EC1    EC   0.10025  0.24204  0.42272
EC2    EC   0.10025  0.24204  0.57728
EC3    EC   0.10025  0.75796  0.42272
EC4    EC   0.10025  0.75796  0.57728
EC5    EC   0.24204  0.10025  0.42272
EC6    EC   0.24204  0.10025  0.57728
EC7    EC   0.24204  0.89975  0.42272
EC8    EC   0.24204  0.89975  0.57728
EC9    EC   0.25796  0.39975  0.07728
EC10   EC   0.25796  0.39975  0.92272
EC11   EC   0.25796  0.60025  0.07728
EC12   EC   0.25796  0.60025  0.92272
EC13   EC   0.39975  0.25796  0.07728
EC14   EC   0.39975  0.25796  0.92272
EC15   EC   0.39975  0.74204  0.07728
EC16   EC   0.39975  0.74204  0.92272
EC17   EC   0.60025  0.25796  0.07728
EC18   EC   0.60025  0.25796  0.92272
EC19   EC   0.60025  0.74204  0.07728
EC20   EC   0.60025  0.74204  0.92272
EC21   EC   0.74204  0.39975  0.07728
EC22   EC   0.74204  0.39975  0.92272
EC23   EC   0.74204  0.60025  0.07728
EC24   EC   0.74204  0.60025  0.92272
EC25   EC   0.75796  0.10025  0.42272
EC26   EC   0.75796  0.10025  0.57728
EC27   EC   0.75796  0.89975  0.42272
EC28   EC   0.75796  0.89975  0.57728
EC29   EC   0.89975  0.24204  0.42272
EC30   EC   0.89975  0.24204  0.57728
EC31   EC   0.89975  0.75796  0.42272
EC32   EC   0.89975  0.75796  0.57728
E1    E   0.00000  0.24204  0.42272
E2    E   0.00000  0.24204  0.57728
E3    E   0.00000  0.39975  0.17272
E4    E   0.00000  0.39975  0.32728
E5    E   0.00000  0.39975  0.67272
E6    E   0.00000  0.39975  0.82728
E7    E   0.00000  0.60025  0.17272
E8    E   0.00000  0.60025  0.32728
E9    E   0.00000  0.60025  0.67272
E10   E   0.00000  0.60025  0.82728
E11   E   0.00000  0.75796  0.42272
E12   E   0.00000  0.75796  0.57728
E13   E   0.10025  0.24204  0.50000
E14   E   0.10025  0.32089  0.37500
E15   E   0.10025  0.32089  0.62500
E16   E   0.10025  0.39975  0.25000
E17   E   0.10025  0.39975  0.75000
E18   E   0.10025  0.50000  0.17272
E19   E   0.10025  0.50000  0.32728
E20   E   0.10025  0.50000  0.67272
E21   E   0.10025  0.50000  0.82728
E22   E   0.10025  0.60025  0.25000
E23   E   0.10025  0.60025  0.75000
E24   E   0.10025  0.67911  0.37500
E25   E   0.10025  0.67911  0.62500
E26   E   0.10025  0.75796  0.50000
E27   E   0.17115  0.17115  0.42272
E28   E   0.17115  0.17115  0.57728
E29   E   0.17115  0.82885  0.42272
E30   E   0.17115  0.82885  0.57728
E31   E   0.17911  0.39975  0.12500
E32   E   0.17911  0.39975  0.87500
E33   E   0.17911  0.60025  0.12500
E34   E   0.17911  0.60025  0.87500
E35   E   0.24204  0.00000  0.42272
E36   E   0.24204  0.00000  0.57728
E37   E   0.24204  0.10025  0.50000
E38   E   0.24204  0.89975  0.50000
E39   E   0.25796  0.39975  0.00000
E40   E   0.25796  0.50000  0.07728
E41   E   0.25796  0.50000  0.92272
E42   E   0.25796  0.60025  0.00000
E43   E   0.32089  0.10025  0.37500
E44   E   0.32089  0.10025  0.62500
E45   E   0.32089  0.89975  0.37500
E46   E   0.32089  0.89975  0.62500
E47   E   0.32885  0.32885  0.07728
E48   E   0.32885  0.32885  0.92272
E49   E   0.32885  0.67115  0.07728
E50   E   0.32885  0.67115  0.92272
E51   E   0.39975  0.00000  0.17272
E52   E   0.39975  0.00000  0.32728
E53   E   0.39975  0.00000  0.67272
E54   E   0.39975  0.00000  0.82728
E55   E   0.39975  0.10025  0.25000
E56   E   0.39975  0.10025  0.75000
E57   E   0.39975  0.17911  0.12500
E58   E   0.39975  0.17911  0.87500
E59   E   0.39975  0.25796  0.00000
E60   E   0.39975  0.74204  0.00000
E61   E   0.39975  0.82089  0.12500
E62   E   0.39975  0.82089  0.87500
E63   E   0.39975  0.89975  0.25000
E64   E   0.39975  0.89975  0.75000
E65   E   0.50000  0.10025  0.17272
E66   E   0.50000  0.10025  0.32728
E67   E   0.50000  0.10025  0.67272
E68   E   0.50000  0.10025  0.82728
E69   E   0.50000  0.25796  0.07728
E70   E   0.50000  0.25796  0.92272
E71   E   0.50000  0.74204  0.07728
E72   E   0.50000  0.74204  0.92272
E73   E   0.50000  0.89975  0.17272
E74   E   0.50000  0.89975  0.32728
E75   E   0.50000  0.89975  0.67272
E76   E   0.50000  0.89975  0.82728
E77   E   0.60025  0.00000  0.17272
E78   E   0.60025  0.00000  0.32728
E79   E   0.60025  0.00000  0.67272
E80   E   0.60025  0.00000  0.82728
E81   E   0.60025  0.10025  0.25000
E82   E   0.60025  0.10025  0.75000
E83   E   0.60025  0.17911  0.12500
E84   E   0.60025  0.17911  0.87500
E85   E   0.60025  0.25796  0.00000
E86   E   0.60025  0.74204  0.00000
E87   E   0.60025  0.82089  0.12500
E88   E   0.60025  0.82089  0.87500
E89   E   0.60025  0.89975  0.25000
E90   E   0.60025  0.89975  0.75000
E91   E   0.67115  0.32885  0.07728
E92   E   0.67115  0.32885  0.92272
E93   E   0.67115  0.67115  0.07728
E94   E   0.67115  0.67115  0.92272
E95   E   0.67911  0.10025  0.37500
E96   E   0.67911  0.10025  0.62500
E97   E   0.67911  0.89975  0.37500
E98   E   0.67911  0.89975  0.62500
E99   E   0.74204  0.39975  0.00000
E100  E   0.74204  0.50000  0.07728
E101  E   0.74204  0.50000  0.92272
E102  E   0.74204  0.60025  0.00000
E103  E   0.75796  0.00000  0.42272
E104  E   0.75796  0.00000  0.57728
E105  E   0.75796  0.10025  0.50000
E106  E   0.75796  0.89975  0.50000
E107  E   0.82089  0.39975  0.12500
E108  E   0.82089  0.39975  0.87500
E109  E   0.82089  0.60025  0.12500
E110  E   0.82089  0.60025  0.87500
E111  E   0.82885  0.17115  0.42272
E112  E   0.82885  0.17115  0.57728
E113  E   0.82885  0.82885  0.42272
E114  E   0.82885  0.82885  0.57728
E115  E   0.89975  0.24204  0.50000
E116  E   0.89975  0.32089  0.37500
E117  E   0.89975  0.32089  0.62500
E118  E   0.89975  0.39975  0.25000
E119  E   0.89975  0.39975  0.75000
E120  E   0.89975  0.50000  0.17272
E121  E   0.89975  0.50000  0.32728
E122  E   0.89975  0.50000  0.67272
E123  E   0.89975  0.50000  0.82728
E124  E   0.89975  0.60025  0.25000
E125  E   0.89975  0.60025  0.75000
E126  E   0.89975  0.67911  0.37500
E127  E   0.89975  0.67911  0.62500
E128  E   0.89975  0.75796  0.50000
loop_
