data_ftj_I4/mmm  hall_number: 424, V_con: 4, EC_con: 4
_audit_creation_date              2025-03-06
_audit_creation_method            'MOFbuilder_1.0'
_symmetry_space_group_name_H-M    'P1'
_symmetry_Int_Tables_number       1
_symmetry_cell_setting            triclinic
loop_
_symmetry_equiv_pos_as_xyz
  x,y,z
_cell_length_a                    39.843
_cell_length_b                    39.843
_cell_length_c                    63.080600000000004
_cell_angle_alpha                 90.0
_cell_angle_beta                  90.0
_cell_angle_gamma                 90.0
loop_
_atom_site_label
_atom_site_type_symbol
_atom_site_fract_x
_atom_site_fract_y
_atom_site_fract_z
V1    V   0.12549  0.30297  0.32254
V2    V   0.12549  0.30297  0.67746
V3    V   0.12549  0.69703  0.32254
V4    V   0.12549  0.69703  0.67746
V5    V   0.19703  0.37451  0.17746
V6    V   0.19703  0.37451  0.82254
V7    V   0.19703  0.62549  0.17746
V8    V   0.19703  0.62549  0.82254
V9    V   0.30297  0.12549  0.32254
V10   V   0.30297  0.12549  0.67746
V11   V   0.30297  0.87451  0.32254
V12   V   0.30297  0.87451  0.67746
V13   V   0.37451  0.19703  0.17746
V14   V   0.37451  0.19703  0.82254
V15   V   0.37451  0.80297  0.17746
V16   V   0.37451  0.80297  0.82254
V17   V   0.62549  0.19703  0.17746
V18   V   0.62549  0.19703  0.82254
V19   V   0.62549  0.80297  0.17746
V20   V   0.62549  0.80297  0.82254
V21   V   0.69703  0.12549  0.32254
V22   V   0.69703  0.12549  0.67746
V23   V   0.69703  0.87451  0.32254
V24   V   0.69703  0.87451  0.67746
V25   V   0.80297  0.37451  0.17746
V26   V   0.80297  0.37451  0.82254
V27   V   0.80297  0.62549  0.17746
V28   V   0.80297  0.62549  0.82254
V29   V   0.87451  0.30297  0.32254
V30   V   0.87451  0.30297  0.67746
V31   V   0.87451  0.69703  0.32254
V32   V   0.87451  0.69703  0.67746
EC1    EC   0.00000  0.37451  0.07926
EC2    EC   0.00000  0.37451  0.92074
EC3    EC   0.00000  0.62549  0.07926
EC4    EC   0.00000  0.62549  0.92074
EC5    EC   0.12549  0.50000  0.42074
EC6    EC   0.12549  0.50000  0.57926
EC7    EC   0.37451  0.00000  0.07926
EC8    EC   0.37451  0.00000  0.92074
EC9    EC   0.50000  0.12549  0.42074
EC10   EC   0.50000  0.12549  0.57926
EC11   EC   0.50000  0.87451  0.42074
EC12   EC   0.50000  0.87451  0.57926
EC13   EC   0.62549  0.00000  0.07926
EC14   EC   0.62549  0.00000  0.92074
EC15   EC   0.87451  0.50000  0.42074
EC16   EC   0.87451  0.50000  0.57926
E1    E   0.00000  0.30297  0.32254
E2    E   0.00000  0.30297  0.67746
E3    E   0.00000  0.37451  0.00000
E4    E   0.00000  0.50000  0.07926
E5    E   0.00000  0.50000  0.42074
E6    E   0.00000  0.50000  0.57926
E7    E   0.00000  0.50000  0.92074
E8    E   0.00000  0.62549  0.00000
E9    E   0.00000  0.69703  0.32254
E10   E   0.00000  0.69703  0.67746
E11   E   0.09852  0.37451  0.12836
E12   E   0.09852  0.37451  0.87164
E13   E   0.09852  0.62549  0.12836
E14   E   0.09852  0.62549  0.87164
E15   E   0.12549  0.40148  0.37164
E16   E   0.12549  0.40148  0.62836
E17   E   0.12549  0.50000  0.50000
E18   E   0.12549  0.59852  0.37164
E19   E   0.12549  0.59852  0.62836
E20   E   0.16126  0.33874  0.25000
E21   E   0.16126  0.33874  0.75000
E22   E   0.16126  0.66126  0.25000
E23   E   0.16126  0.66126  0.75000
E24   E   0.16126  0.33874  0.25000
E25   E   0.16126  0.33874  0.75000
E26   E   0.16126  0.66126  0.25000
E27   E   0.16126  0.66126  0.75000
E28   E   0.19703  0.50000  0.17746
E29   E   0.19703  0.50000  0.82254
E30   E   0.21423  0.21423  0.32254
E31   E   0.21423  0.21423  0.67746
E32   E   0.21423  0.78577  0.32254
E33   E   0.21423  0.78577  0.67746
E34   E   0.28577  0.28577  0.17746
E35   E   0.28577  0.28577  0.82254
E36   E   0.28577  0.71423  0.17746
E37   E   0.28577  0.71423  0.82254
E38   E   0.30297  0.00000  0.32254
E39   E   0.30297  0.00000  0.67746
E40   E   0.33874  0.16126  0.25000
E41   E   0.33874  0.16126  0.75000
E42   E   0.33874  0.83874  0.25000
E43   E   0.33874  0.83874  0.75000
E44   E   0.33874  0.16126  0.25000
E45   E   0.33874  0.16126  0.75000
E46   E   0.33874  0.83874  0.25000
E47   E   0.33874  0.83874  0.75000
E48   E   0.37451  0.00000  0.00000
E49   E   0.37451  0.09852  0.12836
E50   E   0.37451  0.09852  0.87164
E51   E   0.37451  0.90148  0.12836
E52   E   0.37451  0.90148  0.87164
E53   E   0.40148  0.12549  0.37164
E54   E   0.40148  0.12549  0.62836
E55   E   0.40148  0.87451  0.37164
E56   E   0.40148  0.87451  0.62836
E57   E   0.50000  0.00000  0.07926
E58   E   0.50000  0.00000  0.42074
E59   E   0.50000  0.00000  0.57926
E60   E   0.50000  0.00000  0.92074
E61   E   0.50000  0.12549  0.50000
E62   E   0.50000  0.19703  0.17746
E63   E   0.50000  0.19703  0.82254
E64   E   0.50000  0.80297  0.17746
E65   E   0.50000  0.80297  0.82254
E66   E   0.50000  0.87451  0.50000
E67   E   0.59852  0.12549  0.37164
E68   E   0.59852  0.12549  0.62836
E69   E   0.59852  0.87451  0.37164
E70   E   0.59852  0.87451  0.62836
E71   E   0.62549  0.00000  0.00000
E72   E   0.62549  0.09852  0.12836
E73   E   0.62549  0.09852  0.87164
E74   E   0.62549  0.90148  0.12836
E75   E   0.62549  0.90148  0.87164
E76   E   0.66126  0.16126  0.25000
E77   E   0.66126  0.16126  0.75000
E78   E   0.66126  0.16126  0.25000
E79   E   0.66126  0.16126  0.75000
E80   E   0.66126  0.83874  0.25000
E81   E   0.66126  0.83874  0.75000
E82   E   0.69703  0.00000  0.32254
E83   E   0.69703  0.00000  0.67746
E84   E   0.71423  0.28577  0.17746
E85   E   0.71423  0.28577  0.82254
E86   E   0.71423  0.71423  0.17746
E87   E   0.71423  0.71423  0.82254
E88   E   0.78577  0.21423  0.32254
E89   E   0.78577  0.21423  0.67746
E90   E   0.78577  0.78577  0.32254
E91   E   0.78577  0.78577  0.67746
E92   E   0.80297  0.50000  0.17746
E93   E   0.80297  0.50000  0.82254
E94   E   0.83874  0.33874  0.25000
E95   E   0.83874  0.33874  0.75000
E96   E   0.83874  0.33874  0.25000
E97   E   0.83874  0.33874  0.75000
E98   E   0.83874  0.66126  0.25000
E99   E   0.83874  0.66126  0.75000
E100  E   0.87451  0.40148  0.37164
E101  E   0.87451  0.40148  0.62836
E102  E   0.87451  0.50000  0.50000
E103  E   0.87451  0.59852  0.37164
E104  E   0.87451  0.59852  0.62836
E105  E   0.90148  0.37451  0.12836
E106  E   0.90148  0.37451  0.87164
E107  E   0.90148  0.62549  0.12836
E108  E   0.90148  0.62549  0.87164
loop_
