data_ftk_P42/mmc  hall_number: 412, V_con: 4, EC_con: 4
_audit_creation_date              2025-03-06
_audit_creation_method            'MOFbuilder_1.0'
_symmetry_space_group_name_H-M    'P1'
_symmetry_Int_Tables_number       1
_symmetry_cell_setting            triclinic
loop_
_symmetry_equiv_pos_as_xyz
  x,y,z
_cell_length_a                    50.3624
_cell_length_b                    50.3624
_cell_length_c                    29.146700000000003
_cell_angle_alpha                 90.0
_cell_angle_beta                  90.0
_cell_angle_gamma                 90.0
loop_
_atom_site_label
_atom_site_type_symbol
_atom_site_fract_x
_atom_site_fract_y
_atom_site_fract_z
V1    V   0.09928  0.22414  0.32845
V2    V   0.09928  0.22414  0.67155
V3    V   0.09928  0.77586  0.32845
V4    V   0.09928  0.77586  0.67155
V5    V   0.22414  0.09928  0.17155
V6    V   0.22414  0.09928  0.82845
V7    V   0.22414  0.90072  0.17155
V8    V   0.22414  0.90072  0.82845
V9    V   0.77586  0.09928  0.17155
V10   V   0.77586  0.09928  0.82845
V11   V   0.77586  0.90072  0.17155
V12   V   0.77586  0.90072  0.82845
V13   V   0.90072  0.22414  0.32845
V14   V   0.90072  0.22414  0.67155
V15   V   0.90072  0.77586  0.32845
V16   V   0.90072  0.77586  0.67155
EC1    EC   0.09928  0.40072  0.17155
EC2    EC   0.09928  0.40072  0.82845
EC3    EC   0.09928  0.59928  0.17155
EC4    EC   0.09928  0.59928  0.82845
EC5    EC   0.40072  0.09928  0.32845
EC6    EC   0.40072  0.09928  0.67155
EC7    EC   0.40072  0.90072  0.32845
EC8    EC   0.40072  0.90072  0.67155
EC9    EC   0.59928  0.09928  0.32845
EC10   EC   0.59928  0.09928  0.67155
EC11   EC   0.59928  0.90072  0.32845
EC12   EC   0.59928  0.90072  0.67155
EC13   EC   0.90072  0.40072  0.17155
EC14   EC   0.90072  0.40072  0.82845
EC15   EC   0.90072  0.59928  0.17155
EC16   EC   0.90072  0.59928  0.82845
E1    E   0.00000  0.22414  0.32845
E2    E   0.00000  0.22414  0.67155
E3    E   0.00000  0.40072  0.17155
E4    E   0.00000  0.40072  0.82845
E5    E   0.00000  0.59928  0.17155
E6    E   0.00000  0.59928  0.82845
E7    E   0.00000  0.77586  0.32845
E8    E   0.00000  0.77586  0.67155
E9    E   0.09928  0.22414  0.50000
E10   E   0.09928  0.31243  0.25000
E11   E   0.09928  0.31243  0.75000
E12   E   0.09928  0.40072  0.00000
E13   E   0.09928  0.50000  0.17155
E14   E   0.09928  0.50000  0.82845
E15   E   0.09928  0.59928  0.00000
E16   E   0.09928  0.68757  0.25000
E17   E   0.09928  0.68757  0.75000
E18   E   0.09928  0.77586  0.50000
E19   E   0.16171  0.16171  0.25000
E20   E   0.16171  0.16171  0.75000
E21   E   0.16171  0.83829  0.25000
E22   E   0.16171  0.83829  0.75000
E23   E   0.22414  0.00000  0.17155
E24   E   0.22414  0.00000  0.82845
E25   E   0.22414  0.09928  0.00000
E26   E   0.22414  0.90072  0.00000
E27   E   0.31243  0.09928  0.25000
E28   E   0.31243  0.09928  0.75000
E29   E   0.31243  0.90072  0.25000
E30   E   0.31243  0.90072  0.75000
E31   E   0.40072  0.00000  0.32845
E32   E   0.40072  0.00000  0.67155
E33   E   0.40072  0.09928  0.50000
E34   E   0.40072  0.90072  0.50000
E35   E   0.50000  0.09928  0.32845
E36   E   0.50000  0.09928  0.67155
E37   E   0.50000  0.90072  0.32845
E38   E   0.50000  0.90072  0.67155
E39   E   0.59928  0.00000  0.32845
E40   E   0.59928  0.00000  0.67155
E41   E   0.59928  0.09928  0.50000
E42   E   0.59928  0.90072  0.50000
E43   E   0.68757  0.09928  0.25000
E44   E   0.68757  0.09928  0.75000
E45   E   0.68757  0.90072  0.25000
E46   E   0.68757  0.90072  0.75000
E47   E   0.77586  0.00000  0.17155
E48   E   0.77586  0.00000  0.82845
E49   E   0.77586  0.09928  0.00000
E50   E   0.77586  0.90072  0.00000
E51   E   0.83829  0.16171  0.25000
E52   E   0.83829  0.16171  0.75000
E53   E   0.83829  0.83829  0.25000
E54   E   0.83829  0.83829  0.75000
E55   E   0.90072  0.22414  0.50000
E56   E   0.90072  0.31243  0.25000
E57   E   0.90072  0.31243  0.75000
E58   E   0.90072  0.40072  0.00000
E59   E   0.90072  0.50000  0.17155
E60   E   0.90072  0.50000  0.82845
E61   E   0.90072  0.59928  0.00000
E62   E   0.90072  0.68757  0.25000
E63   E   0.90072  0.68757  0.75000
E64   E   0.90072  0.77586  0.50000
loop_
