data_ftn_I4/mmm  hall_number: 424, V_con: 4, EC_con: 4
_audit_creation_date              2025-03-06
_audit_creation_method            'MOFbuilder_1.0'
_symmetry_space_group_name_H-M    'P1'
_symmetry_Int_Tables_number       1
_symmetry_cell_setting            triclinic
loop_
_symmetry_equiv_pos_as_xyz
  x,y,z
_cell_length_a                    38.671
_cell_length_b                    38.671
_cell_length_c                    41.6314
_cell_angle_alpha                 90.0
_cell_angle_beta                  90.0
_cell_angle_gamma                 90.0
loop_
_atom_site_label
_atom_site_type_symbol
_atom_site_fract_x
_atom_site_fract_y
_atom_site_fract_z
V1    V   0.00000  0.18285  0.00000
V2    V   0.00000  0.81715  0.00000
V3    V   0.18285  0.00000  0.00000
V4    V   0.31715  0.50000  0.50000
V5    V   0.50000  0.31715  0.50000
V6    V   0.50000  0.68285  0.50000
V7    V   0.68285  0.50000  0.50000
V8    V   0.81715  0.00000  0.00000
EC1    EC   0.00000  0.37070  0.16508
EC2    EC   0.00000  0.37070  0.83492
EC3    EC   0.00000  0.62930  0.16508
EC4    EC   0.00000  0.62930  0.83492
EC5    EC   0.12930  0.50000  0.33492
EC6    EC   0.12930  0.50000  0.66508
EC7    EC   0.37070  0.00000  0.16508
EC8    EC   0.37070  0.00000  0.83492
EC9    EC   0.50000  0.12930  0.33492
EC10   EC   0.50000  0.12930  0.66508
EC11   EC   0.50000  0.87070  0.33492
EC12   EC   0.50000  0.87070  0.66508
EC13   EC   0.62930  0.00000  0.16508
EC14   EC   0.62930  0.00000  0.83492
EC15   EC   0.87070  0.50000  0.33492
EC16   EC   0.87070  0.50000  0.66508
E1    E   0.00000  0.27678  0.08254
E2    E   0.00000  0.27678  0.91746
E3    E   0.00000  0.50000  0.16508
E4    E   0.00000  0.50000  0.33492
E5    E   0.00000  0.50000  0.66508
E6    E   0.00000  0.50000  0.83492
E7    E   0.00000  0.72322  0.08254
E8    E   0.00000  0.72322  0.91746
E9    E   0.06465  0.43535  0.25000
E10   E   0.06465  0.43535  0.75000
E11   E   0.06465  0.56465  0.25000
E12   E   0.06465  0.56465  0.75000
E13   E   0.06465  0.43535  0.25000
E14   E   0.06465  0.43535  0.75000
E15   E   0.06465  0.56465  0.25000
E16   E   0.06465  0.56465  0.75000
E17   E   0.09143  0.09143  0.00000
E18   E   0.09143  0.90857  0.00000
E19   E   0.22322  0.50000  0.41746
E20   E   0.22322  0.50000  0.58254
E21   E   0.27678  0.00000  0.08254
E22   E   0.27678  0.00000  0.91746
E23   E   0.40857  0.40857  0.50000
E24   E   0.40857  0.59143  0.50000
E25   E   0.43535  0.06465  0.25000
E26   E   0.43535  0.06465  0.75000
E27   E   0.43535  0.06465  0.25000
E28   E   0.43535  0.06465  0.75000
E29   E   0.43535  0.93535  0.25000
E30   E   0.43535  0.93535  0.75000
E31   E   0.50000  0.00000  0.16508
E32   E   0.50000  0.00000  0.33492
E33   E   0.50000  0.00000  0.66508
E34   E   0.50000  0.00000  0.83492
E35   E   0.50000  0.22322  0.41746
E36   E   0.50000  0.22322  0.58254
E37   E   0.50000  0.77678  0.41746
E38   E   0.50000  0.77678  0.58254
E39   E   0.56465  0.06465  0.25000
E40   E   0.56465  0.06465  0.75000
E41   E   0.56465  0.06465  0.25000
E42   E   0.56465  0.06465  0.75000
E43   E   0.56465  0.93535  0.25000
E44   E   0.56465  0.93535  0.75000
E45   E   0.59143  0.40857  0.50000
E46   E   0.59143  0.59143  0.50000
E47   E   0.72322  0.00000  0.08254
E48   E   0.72322  0.00000  0.91746
E49   E   0.77678  0.50000  0.41746
E50   E   0.77678  0.50000  0.58254
E51   E   0.90857  0.09143  0.00000
E52   E   0.90857  0.90857  0.00000
E53   E   0.93535  0.43535  0.25000
E54   E   0.93535  0.43535  0.75000
E55   E   0.93535  0.56465  0.25000
E56   E   0.93535  0.56465  0.75000
loop_
