data_ftr_Pm-3m  hall_number: 517, V_con: 4, EC_con: 4
_audit_creation_date              2025-03-06
_audit_creation_method            'MOFbuilder_1.0'
_symmetry_space_group_name_H-M    'P1'
_symmetry_Int_Tables_number       1
_symmetry_cell_setting            triclinic
loop_
_symmetry_equiv_pos_as_xyz
  x,y,z
_cell_length_a                    65.6047
_cell_length_b                    65.6047
_cell_length_c                    65.6047
_cell_angle_alpha                 90.0
_cell_angle_beta                  90.0
_cell_angle_gamma                 90.0
loop_
_atom_site_label
_atom_site_type_symbol
_atom_site_fract_x
_atom_site_fract_y
_atom_site_fract_z
V1    V   0.07621  0.18400  0.50000
V2    V   0.07621  0.50000  0.18400
V3    V   0.07621  0.50000  0.81600
V4    V   0.07621  0.81600  0.50000
V5    V   0.18400  0.07621  0.50000
V6    V   0.18400  0.50000  0.07621
V7    V   0.18400  0.50000  0.92379
V8    V   0.18400  0.92379  0.50000
V9    V   0.50000  0.07621  0.18400
V10   V   0.50000  0.07621  0.81600
V11   V   0.50000  0.18400  0.07621
V12   V   0.50000  0.18400  0.92379
V13   V   0.50000  0.81600  0.07621
V14   V   0.50000  0.81600  0.92379
V15   V   0.50000  0.92379  0.18400
V16   V   0.50000  0.92379  0.81600
V17   V   0.81600  0.07621  0.50000
V18   V   0.81600  0.50000  0.07621
V19   V   0.81600  0.50000  0.92379
V20   V   0.81600  0.92379  0.50000
V21   V   0.92379  0.18400  0.50000
V22   V   0.92379  0.50000  0.18400
V23   V   0.92379  0.50000  0.81600
V24   V   0.92379  0.81600  0.50000
EC1    EC   0.07621  0.31600  0.42379
EC2    EC   0.07621  0.31600  0.57621
EC3    EC   0.07621  0.42379  0.31600
EC4    EC   0.07621  0.42379  0.68400
EC5    EC   0.07621  0.57621  0.31600
EC6    EC   0.07621  0.57621  0.68400
EC7    EC   0.07621  0.68400  0.42379
EC8    EC   0.07621  0.68400  0.57621
EC9    EC   0.31600  0.07621  0.42379
EC10   EC   0.31600  0.07621  0.57621
EC11   EC   0.31600  0.42379  0.07621
EC12   EC   0.31600  0.42379  0.92379
EC13   EC   0.31600  0.57621  0.07621
EC14   EC   0.31600  0.57621  0.92379
EC15   EC   0.31600  0.92379  0.42379
EC16   EC   0.31600  0.92379  0.57621
EC17   EC   0.42379  0.07621  0.31600
EC18   EC   0.42379  0.07621  0.68400
EC19   EC   0.42379  0.31600  0.07621
EC20   EC   0.42379  0.31600  0.92379
EC21   EC   0.42379  0.68400  0.07621
EC22   EC   0.42379  0.68400  0.92379
EC23   EC   0.42379  0.92379  0.31600
EC24   EC   0.42379  0.92379  0.68400
EC25   EC   0.57621  0.07621  0.31600
EC26   EC   0.57621  0.07621  0.68400
EC27   EC   0.57621  0.31600  0.07621
EC28   EC   0.57621  0.31600  0.92379
EC29   EC   0.57621  0.68400  0.07621
EC30   EC   0.57621  0.68400  0.92379
EC31   EC   0.57621  0.92379  0.31600
EC32   EC   0.57621  0.92379  0.68400
EC33   EC   0.68400  0.07621  0.42379
EC34   EC   0.68400  0.07621  0.57621
EC35   EC   0.68400  0.42379  0.07621
EC36   EC   0.68400  0.42379  0.92379
EC37   EC   0.68400  0.57621  0.07621
EC38   EC   0.68400  0.57621  0.92379
EC39   EC   0.68400  0.92379  0.42379
EC40   EC   0.68400  0.92379  0.57621
EC41   EC   0.92379  0.31600  0.42379
EC42   EC   0.92379  0.31600  0.57621
EC43   EC   0.92379  0.42379  0.31600
EC44   EC   0.92379  0.42379  0.68400
EC45   EC   0.92379  0.57621  0.31600
EC46   EC   0.92379  0.57621  0.68400
EC47   EC   0.92379  0.68400  0.42379
EC48   EC   0.92379  0.68400  0.57621
E1    E   0.00000  0.18400  0.50000
E2    E   0.00000  0.31600  0.42379
E3    E   0.00000  0.31600  0.57621
E4    E   0.00000  0.42379  0.31600
E5    E   0.00000  0.42379  0.68400
E6    E   0.00000  0.50000  0.18400
E7    E   0.00000  0.50000  0.81600
E8    E   0.00000  0.57621  0.31600
E9    E   0.00000  0.57621  0.68400
E10   E   0.00000  0.68400  0.42379
E11   E   0.00000  0.68400  0.57621
E12   E   0.00000  0.81600  0.50000
E13   E   0.07621  0.25000  0.46189
E14   E   0.07621  0.25000  0.53811
E15   E   0.07621  0.31600  0.50000
E16   E   0.07621  0.36989  0.36989
E17   E   0.07621  0.36989  0.63011
E18   E   0.07621  0.46189  0.25000
E19   E   0.07621  0.46189  0.75000
E20   E   0.07621  0.50000  0.31600
E21   E   0.07621  0.50000  0.68400
E22   E   0.07621  0.53811  0.25000
E23   E   0.07621  0.53811  0.75000
E24   E   0.07621  0.63011  0.36989
E25   E   0.07621  0.63011  0.63011
E26   E   0.07621  0.68400  0.50000
E27   E   0.07621  0.75000  0.46189
E28   E   0.07621  0.75000  0.53811
E29   E   0.13011  0.13011  0.50000
E30   E   0.13011  0.50000  0.13011
E31   E   0.13011  0.50000  0.86989
E32   E   0.13011  0.86989  0.50000
E33   E   0.18400  0.00000  0.50000
E34   E   0.18400  0.50000  0.00000
E35   E   0.25000  0.07621  0.46189
E36   E   0.25000  0.07621  0.53811
E37   E   0.25000  0.46189  0.07621
E38   E   0.25000  0.46189  0.92379
E39   E   0.25000  0.53811  0.07621
E40   E   0.25000  0.53811  0.92379
E41   E   0.25000  0.92379  0.46189
E42   E   0.25000  0.92379  0.53811
E43   E   0.31600  0.00000  0.42379
E44   E   0.31600  0.00000  0.57621
E45   E   0.31600  0.07621  0.50000
E46   E   0.31600  0.42379  0.00000
E47   E   0.31600  0.50000  0.07621
E48   E   0.31600  0.50000  0.92379
E49   E   0.31600  0.57621  0.00000
E50   E   0.31600  0.92379  0.50000
E51   E   0.36989  0.07621  0.36989
E52   E   0.36989  0.07621  0.63011
E53   E   0.36989  0.36989  0.07621
E54   E   0.36989  0.36989  0.92379
E55   E   0.36989  0.63011  0.07621
E56   E   0.36989  0.63011  0.92379
E57   E   0.36989  0.92379  0.36989
E58   E   0.36989  0.92379  0.63011
E59   E   0.42379  0.00000  0.31600
E60   E   0.42379  0.00000  0.68400
E61   E   0.42379  0.31600  0.00000
E62   E   0.42379  0.68400  0.00000
E63   E   0.46189  0.07621  0.25000
E64   E   0.46189  0.07621  0.75000
E65   E   0.46189  0.25000  0.07621
E66   E   0.46189  0.25000  0.92379
E67   E   0.46189  0.75000  0.07621
E68   E   0.46189  0.75000  0.92379
E69   E   0.46189  0.92379  0.25000
E70   E   0.46189  0.92379  0.75000
E71   E   0.50000  0.00000  0.18400
E72   E   0.50000  0.00000  0.81600
E73   E   0.50000  0.07621  0.31600
E74   E   0.50000  0.07621  0.68400
E75   E   0.50000  0.13011  0.13011
E76   E   0.50000  0.13011  0.86989
E77   E   0.50000  0.18400  0.00000
E78   E   0.50000  0.31600  0.07621
E79   E   0.50000  0.31600  0.92379
E80   E   0.50000  0.68400  0.07621
E81   E   0.50000  0.68400  0.92379
E82   E   0.50000  0.81600  0.00000
E83   E   0.50000  0.86989  0.13011
E84   E   0.50000  0.86989  0.86989
E85   E   0.50000  0.92379  0.31600
E86   E   0.50000  0.92379  0.68400
E87   E   0.53811  0.07621  0.25000
E88   E   0.53811  0.07621  0.75000
E89   E   0.53811  0.25000  0.07621
E90   E   0.53811  0.25000  0.92379
E91   E   0.53811  0.75000  0.07621
E92   E   0.53811  0.75000  0.92379
E93   E   0.53811  0.92379  0.25000
E94   E   0.53811  0.92379  0.75000
E95   E   0.57621  0.00000  0.31600
E96   E   0.57621  0.00000  0.68400
E97   E   0.57621  0.31600  0.00000
E98   E   0.57621  0.68400  0.00000
E99   E   0.63011  0.07621  0.36989
E100  E   0.63011  0.07621  0.63011
E101  E   0.63011  0.36989  0.07621
E102  E   0.63011  0.36989  0.92379
E103  E   0.63011  0.63011  0.07621
E104  E   0.63011  0.63011  0.92379
E105  E   0.63011  0.92379  0.36989
E106  E   0.63011  0.92379  0.63011
E107  E   0.68400  0.00000  0.42379
E108  E   0.68400  0.00000  0.57621
E109  E   0.68400  0.07621  0.50000
E110  E   0.68400  0.42379  0.00000
E111  E   0.68400  0.50000  0.07621
E112  E   0.68400  0.50000  0.92379
E113  E   0.68400  0.57621  0.00000
E114  E   0.68400  0.92379  0.50000
E115  E   0.75000  0.07621  0.46189
E116  E   0.75000  0.07621  0.53811
E117  E   0.75000  0.46189  0.07621
E118  E   0.75000  0.46189  0.92379
E119  E   0.75000  0.53811  0.07621
E120  E   0.75000  0.53811  0.92379
E121  E   0.75000  0.92379  0.46189
E122  E   0.75000  0.92379  0.53811
E123  E   0.81600  0.00000  0.50000
E124  E   0.81600  0.50000  0.00000
E125  E   0.86989  0.13011  0.50000
E126  E   0.86989  0.50000  0.13011
E127  E   0.86989  0.50000  0.86989
E128  E   0.86989  0.86989  0.50000
E129  E   0.92379  0.25000  0.46189
E130  E   0.92379  0.25000  0.53811
E131  E   0.92379  0.31600  0.50000
E132  E   0.92379  0.36989  0.36989
E133  E   0.92379  0.36989  0.63011
E134  E   0.92379  0.46189  0.25000
E135  E   0.92379  0.46189  0.75000
E136  E   0.92379  0.50000  0.31600
E137  E   0.92379  0.50000  0.68400
E138  E   0.92379  0.53811  0.25000
E139  E   0.92379  0.53811  0.75000
E140  E   0.92379  0.63011  0.36989
E141  E   0.92379  0.63011  0.63011
E142  E   0.92379  0.68400  0.50000
E143  E   0.92379  0.75000  0.46189
E144  E   0.92379  0.75000  0.53811
loop_
