data_ftv_Im-3  hall_number: 500, V_con: 4, EC_con: 4
_audit_creation_date              2025-03-06
_audit_creation_method            'MOFbuilder_1.0'
_symmetry_space_group_name_H-M    'P1'
_symmetry_Int_Tables_number       1
_symmetry_cell_setting            triclinic
loop_
_symmetry_equiv_pos_as_xyz
  x,y,z
_cell_length_a                    54.48909999999999
_cell_length_b                    54.48909999999999
_cell_length_c                    54.48909999999999
_cell_angle_alpha                 90.0
_cell_angle_beta                  90.0
_cell_angle_gamma                 90.0
loop_
_atom_site_label
_atom_site_type_symbol
_atom_site_fract_x
_atom_site_fract_y
_atom_site_fract_z
V1    V   0.00000  0.40824  0.20167
V2    V   0.00000  0.40824  0.79833
V3    V   0.00000  0.59176  0.20167
V4    V   0.00000  0.59176  0.79833
V5    V   0.09176  0.29833  0.50000
V6    V   0.09176  0.70167  0.50000
V7    V   0.20167  0.00000  0.40824
V8    V   0.20167  0.00000  0.59176
V9    V   0.29833  0.50000  0.09176
V10   V   0.29833  0.50000  0.90824
V11   V   0.40824  0.20167  0.00000
V12   V   0.40824  0.79833  0.00000
V13   V   0.50000  0.09176  0.29833
V14   V   0.50000  0.09176  0.70167
V15   V   0.50000  0.90824  0.29833
V16   V   0.50000  0.90824  0.70167
V17   V   0.59176  0.20167  0.00000
V18   V   0.59176  0.79833  0.00000
V19   V   0.70167  0.50000  0.09176
V20   V   0.70167  0.50000  0.90824
V21   V   0.79833  0.00000  0.40824
V22   V   0.79833  0.00000  0.59176
V23   V   0.90824  0.29833  0.50000
V24   V   0.90824  0.70167  0.50000
EC1    EC   0.00000  0.40824  0.38519
EC2    EC   0.00000  0.40824  0.61481
EC3    EC   0.00000  0.59176  0.38519
EC4    EC   0.00000  0.59176  0.61481
EC5    EC   0.09176  0.11481  0.50000
EC6    EC   0.09176  0.88519  0.50000
EC7    EC   0.11481  0.50000  0.09176
EC8    EC   0.11481  0.50000  0.90824
EC9    EC   0.38519  0.00000  0.40824
EC10   EC   0.38519  0.00000  0.59176
EC11   EC   0.40824  0.38519  0.00000
EC12   EC   0.40824  0.61481  0.00000
EC13   EC   0.50000  0.09176  0.11481
EC14   EC   0.50000  0.09176  0.88519
EC15   EC   0.50000  0.90824  0.11481
EC16   EC   0.50000  0.90824  0.88519
EC17   EC   0.59176  0.38519  0.00000
EC18   EC   0.59176  0.61481  0.00000
EC19   EC   0.61481  0.00000  0.40824
EC20   EC   0.61481  0.00000  0.59176
EC21   EC   0.88519  0.50000  0.09176
EC22   EC   0.88519  0.50000  0.90824
EC23   EC   0.90824  0.11481  0.50000
EC24   EC   0.90824  0.88519  0.50000
E1    E   0.00000  0.11481  0.50000
E2    E   0.00000  0.29833  0.50000
E3    E   0.00000  0.40824  0.29343
E4    E   0.00000  0.40824  0.70657
E5    E   0.00000  0.50000  0.20167
E6    E   0.00000  0.50000  0.38519
E7    E   0.00000  0.50000  0.61481
E8    E   0.00000  0.50000  0.79833
E9    E   0.00000  0.59176  0.29343
E10   E   0.00000  0.59176  0.70657
E11   E   0.00000  0.70167  0.50000
E12   E   0.00000  0.88519  0.50000
E13   E   0.04588  0.35328  0.44260
E14   E   0.04588  0.35328  0.55740
E15   E   0.04588  0.64672  0.44260
E16   E   0.04588  0.64672  0.55740
E17   E   0.05740  0.45412  0.14672
E18   E   0.05740  0.45412  0.85328
E19   E   0.05740  0.54588  0.14672
E20   E   0.05740  0.54588  0.85328
E21   E   0.09176  0.20657  0.50000
E22   E   0.09176  0.79343  0.50000
E23   E   0.11481  0.50000  0.00000
E24   E   0.14672  0.05740  0.45412
E25   E   0.14672  0.05740  0.54588
E26   E   0.14672  0.94260  0.45412
E27   E   0.14672  0.94260  0.54588
E28   E   0.20167  0.00000  0.50000
E29   E   0.20657  0.50000  0.09176
E30   E   0.20657  0.50000  0.90824
E31   E   0.29343  0.00000  0.40824
E32   E   0.29343  0.00000  0.59176
E33   E   0.29833  0.50000  0.00000
E34   E   0.35328  0.44260  0.04588
E35   E   0.35328  0.44260  0.95412
E36   E   0.35328  0.55740  0.04588
E37   E   0.35328  0.55740  0.95412
E38   E   0.38519  0.00000  0.50000
E39   E   0.40824  0.29343  0.00000
E40   E   0.40824  0.70657  0.00000
E41   E   0.44260  0.04588  0.35328
E42   E   0.44260  0.04588  0.64672
E43   E   0.44260  0.95412  0.35328
E44   E   0.44260  0.95412  0.64672
E45   E   0.45412  0.14672  0.05740
E46   E   0.45412  0.14672  0.94260
E47   E   0.45412  0.85328  0.05740
E48   E   0.45412  0.85328  0.94260
E49   E   0.50000  0.00000  0.11481
E50   E   0.50000  0.00000  0.29833
E51   E   0.50000  0.00000  0.70167
E52   E   0.50000  0.00000  0.88519
E53   E   0.50000  0.09176  0.20657
E54   E   0.50000  0.09176  0.79343
E55   E   0.50000  0.20167  0.00000
E56   E   0.50000  0.38519  0.00000
E57   E   0.50000  0.61481  0.00000
E58   E   0.50000  0.79833  0.00000
E59   E   0.50000  0.90824  0.20657
E60   E   0.50000  0.90824  0.79343
E61   E   0.54588  0.14672  0.05740
E62   E   0.54588  0.14672  0.94260
E63   E   0.54588  0.85328  0.05740
E64   E   0.54588  0.85328  0.94260
E65   E   0.55740  0.04588  0.35328
E66   E   0.55740  0.04588  0.64672
E67   E   0.55740  0.95412  0.35328
E68   E   0.55740  0.95412  0.64672
E69   E   0.59176  0.29343  0.00000
E70   E   0.59176  0.70657  0.00000
E71   E   0.61481  0.00000  0.50000
E72   E   0.64672  0.44260  0.04588
E73   E   0.64672  0.44260  0.95412
E74   E   0.64672  0.55740  0.04588
E75   E   0.64672  0.55740  0.95412
E76   E   0.70167  0.50000  0.00000
E77   E   0.70657  0.00000  0.40824
E78   E   0.70657  0.00000  0.59176
E79   E   0.79343  0.50000  0.09176
E80   E   0.79343  0.50000  0.90824
E81   E   0.79833  0.00000  0.50000
E82   E   0.85328  0.05740  0.45412
E83   E   0.85328  0.05740  0.54588
E84   E   0.85328  0.94260  0.45412
E85   E   0.85328  0.94260  0.54588
E86   E   0.88519  0.50000  0.00000
E87   E   0.90824  0.20657  0.50000
E88   E   0.90824  0.79343  0.50000
E89   E   0.94260  0.45412  0.14672
E90   E   0.94260  0.45412  0.85328
E91   E   0.94260  0.54588  0.14672
E92   E   0.94260  0.54588  0.85328
E93   E   0.95412  0.35328  0.44260
E94   E   0.95412  0.35328  0.55740
E95   E   0.95412  0.64672  0.44260
E96   E   0.95412  0.64672  0.55740
loop_
