data_ftz_Pn-3m:2  hall_number: 522, V_con: 4, EC_con: 4
_audit_creation_date              2025-03-06
_audit_creation_method            'MOFbuilder_1.0'
_symmetry_space_group_name_H-M    'P1'
_symmetry_Int_Tables_number       1
_symmetry_cell_setting            triclinic
loop_
_symmetry_equiv_pos_as_xyz
  x,y,z
_cell_length_a                    66.602
_cell_length_b                    66.602
_cell_length_c                    66.602
_cell_angle_alpha                 90.0
_cell_angle_beta                  90.0
_cell_angle_gamma                 90.0
loop_
_atom_site_label
_atom_site_type_symbol
_atom_site_fract_x
_atom_site_fract_y
_atom_site_fract_z
V1    V   0.10125  0.20742  0.68817
V2    V   0.10125  0.29258  0.81183
V3    V   0.10125  0.68817  0.20742
V4    V   0.10125  0.81183  0.29258
V5    V   0.18817  0.60125  0.79258
V6    V   0.18817  0.70742  0.89875
V7    V   0.18817  0.79258  0.60125
V8    V   0.18817  0.89875  0.70742
V9    V   0.20742  0.10125  0.68817
V10   V   0.20742  0.39875  0.81183
V11   V   0.20742  0.68817  0.10125
V12   V   0.20742  0.81183  0.39875
V13   V   0.29258  0.10125  0.81183
V14   V   0.29258  0.39875  0.68817
V15   V   0.29258  0.68817  0.39875
V16   V   0.29258  0.81183  0.10125
V17   V   0.31183  0.60125  0.70742
V18   V   0.31183  0.70742  0.60125
V19   V   0.31183  0.79258  0.89875
V20   V   0.31183  0.89875  0.79258
V21   V   0.39875  0.20742  0.81183
V22   V   0.39875  0.29258  0.68817
V23   V   0.39875  0.68817  0.29258
V24   V   0.39875  0.81183  0.20742
V25   V   0.60125  0.18817  0.79258
V26   V   0.60125  0.31183  0.70742
V27   V   0.60125  0.70742  0.31183
V28   V   0.60125  0.79258  0.18817
V29   V   0.68817  0.10125  0.20742
V30   V   0.68817  0.20742  0.10125
V31   V   0.68817  0.29258  0.39875
V32   V   0.68817  0.39875  0.29258
V33   V   0.70742  0.18817  0.89875
V34   V   0.70742  0.31183  0.60125
V35   V   0.70742  0.60125  0.31183
V36   V   0.70742  0.89875  0.18817
V37   V   0.79258  0.18817  0.60125
V38   V   0.79258  0.31183  0.89875
V39   V   0.79258  0.60125  0.18817
V40   V   0.79258  0.89875  0.31183
V41   V   0.81183  0.10125  0.29258
V42   V   0.81183  0.20742  0.39875
V43   V   0.81183  0.29258  0.10125
V44   V   0.81183  0.39875  0.20742
V45   V   0.89875  0.18817  0.70742
V46   V   0.89875  0.31183  0.79258
V47   V   0.89875  0.70742  0.18817
V48   V   0.89875  0.79258  0.31183
EC1    EC   0.01466  0.12083  0.77505
EC2    EC   0.01466  0.37917  0.72495
EC3    EC   0.01466  0.72495  0.37917
EC4    EC   0.01466  0.77505  0.12083
EC5    EC   0.12083  0.01466  0.77505
EC6    EC   0.12083  0.48534  0.72495
EC7    EC   0.12083  0.72495  0.48534
EC8    EC   0.12083  0.77505  0.01466
EC9    EC   0.22495  0.51466  0.62083
EC10   EC   0.22495  0.62083  0.51466
EC11   EC   0.22495  0.87917  0.98534
EC12   EC   0.22495  0.98534  0.87917
EC13   EC   0.27505  0.51466  0.87917
EC14   EC   0.27505  0.62083  0.98534
EC15   EC   0.27505  0.87917  0.51466
EC16   EC   0.27505  0.98534  0.62083
EC17   EC   0.37917  0.01466  0.72495
EC18   EC   0.37917  0.48534  0.77505
EC19   EC   0.37917  0.72495  0.01466
EC20   EC   0.37917  0.77505  0.48534
EC21   EC   0.48534  0.12083  0.72495
EC22   EC   0.48534  0.37917  0.77505
EC23   EC   0.48534  0.72495  0.12083
EC24   EC   0.48534  0.77505  0.37917
EC25   EC   0.51466  0.22495  0.62083
EC26   EC   0.51466  0.27505  0.87917
EC27   EC   0.51466  0.62083  0.22495
EC28   EC   0.51466  0.87917  0.27505
EC29   EC   0.62083  0.22495  0.51466
EC30   EC   0.62083  0.27505  0.98534
EC31   EC   0.62083  0.51466  0.22495
EC32   EC   0.62083  0.98534  0.27505
EC33   EC   0.72495  0.01466  0.37917
EC34   EC   0.72495  0.12083  0.48534
EC35   EC   0.72495  0.37917  0.01466
EC36   EC   0.72495  0.48534  0.12083
EC37   EC   0.77505  0.01466  0.12083
EC38   EC   0.77505  0.12083  0.01466
EC39   EC   0.77505  0.37917  0.48534
EC40   EC   0.77505  0.48534  0.37917
EC41   EC   0.87917  0.22495  0.98534
EC42   EC   0.87917  0.27505  0.51466
EC43   EC   0.87917  0.51466  0.27505
EC44   EC   0.87917  0.98534  0.22495
EC45   EC   0.98534  0.22495  0.87917
EC46   EC   0.98534  0.27505  0.62083
EC47   EC   0.98534  0.62083  0.27505
EC48   EC   0.98534  0.87917  0.22495
E1    E   0.00000  0.17289  0.82711
E2    E   0.00000  0.32711  0.67289
E3    E   0.00000  0.67289  0.32711
E4    E   0.00000  0.82711  0.17289
E5    E   0.04330  0.24123  0.65450
E6    E   0.04330  0.25877  0.84550
E7    E   0.04330  0.65450  0.24123
E8    E   0.04330  0.84550  0.25877
E9    E   0.05796  0.16413  0.73161
E10   E   0.05796  0.33587  0.76839
E11   E   0.05796  0.73161  0.16413
E12   E   0.05796  0.76839  0.33587
E13   E   0.06775  0.06775  0.77505
E14   E   0.06775  0.43225  0.72495
E15   E   0.06775  0.72495  0.43225
E16   E   0.06775  0.77505  0.06775
E17   E   0.10125  0.25000  0.75000
E18   E   0.10125  0.75000  0.25000
E19   E   0.15434  0.15434  0.68817
E20   E   0.15434  0.34566  0.81183
E21   E   0.15434  0.68817  0.15434
E22   E   0.15434  0.81183  0.34566
E23   E   0.15450  0.54330  0.75877
E24   E   0.15450  0.74123  0.95670
E25   E   0.15450  0.75877  0.54330
E26   E   0.15450  0.95670  0.74123
E27   E   0.16413  0.05796  0.73161
E28   E   0.16413  0.44204  0.76839
E29   E   0.16413  0.73161  0.05796
E30   E   0.16413  0.76839  0.44204
E31   E   0.17289  0.00000  0.82711
E32   E   0.17289  0.50000  0.67289
E33   E   0.17289  0.67289  0.50000
E34   E   0.17289  0.82711  0.00000
E35   E   0.18817  0.65434  0.84566
E36   E   0.18817  0.84566  0.65434
E37   E   0.22495  0.56775  0.56775
E38   E   0.22495  0.93225  0.93225
E39   E   0.23161  0.55796  0.83587
E40   E   0.23161  0.66413  0.94204
E41   E   0.23161  0.83587  0.55796
E42   E   0.23161  0.94204  0.66413
E43   E   0.24123  0.04330  0.65450
E44   E   0.24123  0.45670  0.84550
E45   E   0.24123  0.65450  0.04330
E46   E   0.24123  0.84550  0.45670
E47   E   0.25000  0.10125  0.75000
E48   E   0.25000  0.39875  0.75000
E49   E   0.25000  0.60125  0.75000
E50   E   0.25000  0.75000  0.10125
E51   E   0.25000  0.75000  0.39875
E52   E   0.25000  0.75000  0.60125
E53   E   0.25000  0.75000  0.89875
E54   E   0.25000  0.89875  0.75000
E55   E   0.25877  0.04330  0.84550
E56   E   0.25877  0.45670  0.65450
E57   E   0.25877  0.65450  0.45670
E58   E   0.25877  0.84550  0.04330
E59   E   0.26839  0.55796  0.66413
E60   E   0.26839  0.66413  0.55796
E61   E   0.26839  0.83587  0.94204
E62   E   0.26839  0.94204  0.83587
E63   E   0.27505  0.56775  0.93225
E64   E   0.27505  0.93225  0.56775
E65   E   0.31183  0.65434  0.65434
E66   E   0.31183  0.84566  0.84566
E67   E   0.32711  0.00000  0.67289
E68   E   0.32711  0.50000  0.82711
E69   E   0.32711  0.67289  0.00000
E70   E   0.32711  0.82711  0.50000
E71   E   0.33587  0.05796  0.76839
E72   E   0.33587  0.44204  0.73161
E73   E   0.33587  0.73161  0.44204
E74   E   0.33587  0.76839  0.05796
E75   E   0.34550  0.54330  0.74123
E76   E   0.34550  0.74123  0.54330
E77   E   0.34550  0.75877  0.95670
E78   E   0.34550  0.95670  0.75877
E79   E   0.34566  0.15434  0.81183
E80   E   0.34566  0.34566  0.68817
E81   E   0.34566  0.68817  0.34566
E82   E   0.34566  0.81183  0.15434
E83   E   0.39875  0.25000  0.75000
E84   E   0.39875  0.75000  0.25000
E85   E   0.43225  0.06775  0.72495
E86   E   0.43225  0.43225  0.77505
E87   E   0.43225  0.72495  0.06775
E88   E   0.43225  0.77505  0.43225
E89   E   0.44204  0.16413  0.76839
E90   E   0.44204  0.33587  0.73161
E91   E   0.44204  0.73161  0.33587
E92   E   0.44204  0.76839  0.16413
E93   E   0.45670  0.24123  0.84550
E94   E   0.45670  0.25877  0.65450
E95   E   0.45670  0.65450  0.25877
E96   E   0.45670  0.84550  0.24123
E97   E   0.50000  0.17289  0.67289
E98   E   0.50000  0.32711  0.82711
E99   E   0.50000  0.67289  0.17289
E100  E   0.50000  0.82711  0.32711
E101  E   0.54330  0.15450  0.75877
E102  E   0.54330  0.34550  0.74123
E103  E   0.54330  0.74123  0.34550
E104  E   0.54330  0.75877  0.15450
E105  E   0.55796  0.23161  0.83587
E106  E   0.55796  0.26839  0.66413
E107  E   0.55796  0.66413  0.26839
E108  E   0.55796  0.83587  0.23161
E109  E   0.56775  0.22495  0.56775
E110  E   0.56775  0.27505  0.93225
E111  E   0.56775  0.56775  0.22495
E112  E   0.56775  0.93225  0.27505
E113  E   0.60125  0.25000  0.75000
E114  E   0.60125  0.75000  0.25000
E115  E   0.65434  0.18817  0.84566
E116  E   0.65434  0.31183  0.65434
E117  E   0.65434  0.65434  0.31183
E118  E   0.65434  0.84566  0.18817
E119  E   0.65450  0.04330  0.24123
E120  E   0.65450  0.24123  0.04330
E121  E   0.65450  0.25877  0.45670
E122  E   0.65450  0.45670  0.25877
E123  E   0.66413  0.23161  0.94204
E124  E   0.66413  0.26839  0.55796
E125  E   0.66413  0.55796  0.26839
E126  E   0.66413  0.94204  0.23161
E127  E   0.67289  0.00000  0.32711
E128  E   0.67289  0.17289  0.50000
E129  E   0.67289  0.32711  0.00000
E130  E   0.67289  0.50000  0.17289
E131  E   0.68817  0.15434  0.15434
E132  E   0.68817  0.34566  0.34566
E133  E   0.72495  0.06775  0.43225
E134  E   0.72495  0.43225  0.06775
E135  E   0.73161  0.05796  0.16413
E136  E   0.73161  0.16413  0.05796
E137  E   0.73161  0.33587  0.44204
E138  E   0.73161  0.44204  0.33587
E139  E   0.74123  0.15450  0.95670
E140  E   0.74123  0.34550  0.54330
E141  E   0.74123  0.54330  0.34550
E142  E   0.74123  0.95670  0.15450
E143  E   0.75000  0.10125  0.25000
E144  E   0.75000  0.25000  0.10125
E145  E   0.75000  0.25000  0.39875
E146  E   0.75000  0.25000  0.60125
E147  E   0.75000  0.25000  0.89875
E148  E   0.75000  0.39875  0.25000
E149  E   0.75000  0.60125  0.25000
E150  E   0.75000  0.89875  0.25000
E151  E   0.75877  0.15450  0.54330
E152  E   0.75877  0.34550  0.95670
E153  E   0.75877  0.54330  0.15450
E154  E   0.75877  0.95670  0.34550
E155  E   0.76839  0.05796  0.33587
E156  E   0.76839  0.16413  0.44204
E157  E   0.76839  0.33587  0.05796
E158  E   0.76839  0.44204  0.16413
E159  E   0.77505  0.06775  0.06775
E160  E   0.77505  0.43225  0.43225
E161  E   0.81183  0.15434  0.34566
E162  E   0.81183  0.34566  0.15434
E163  E   0.82711  0.00000  0.17289
E164  E   0.82711  0.17289  0.00000
E165  E   0.82711  0.32711  0.50000
E166  E   0.82711  0.50000  0.32711
E167  E   0.83587  0.23161  0.55796
E168  E   0.83587  0.26839  0.94204
E169  E   0.83587  0.55796  0.23161
E170  E   0.83587  0.94204  0.26839
E171  E   0.84550  0.04330  0.25877
E172  E   0.84550  0.24123  0.45670
E173  E   0.84550  0.25877  0.04330
E174  E   0.84550  0.45670  0.24123
E175  E   0.84566  0.18817  0.65434
E176  E   0.84566  0.31183  0.84566
E177  E   0.84566  0.65434  0.18817
E178  E   0.84566  0.84566  0.31183
E179  E   0.89875  0.25000  0.75000
E180  E   0.89875  0.75000  0.25000
E181  E   0.93225  0.22495  0.93225
E182  E   0.93225  0.27505  0.56775
E183  E   0.93225  0.56775  0.27505
E184  E   0.93225  0.93225  0.22495
E185  E   0.94204  0.23161  0.66413
E186  E   0.94204  0.26839  0.83587
E187  E   0.94204  0.66413  0.23161
E188  E   0.94204  0.83587  0.26839
E189  E   0.95670  0.15450  0.74123
E190  E   0.95670  0.34550  0.75877
E191  E   0.95670  0.74123  0.15450
E192  E   0.95670  0.75877  0.34550
loop_
