data_fub_Im-3m  hall_number: 529, V_con: 4, EC_con: 4
_audit_creation_date              2025-03-06
_audit_creation_method            'MOFbuilder_1.0'
_symmetry_space_group_name_H-M    'P1'
_symmetry_Int_Tables_number       1
_symmetry_cell_setting            triclinic
loop_
_symmetry_equiv_pos_as_xyz
  x,y,z
_cell_length_a                    82.77929999999999
_cell_length_b                    82.77929999999999
_cell_length_c                    82.77929999999999
_cell_angle_alpha                 90.0
_cell_angle_beta                  90.0
_cell_angle_gamma                 90.0
loop_
_atom_site_label
_atom_site_type_symbol
_atom_site_fract_x
_atom_site_fract_y
_atom_site_fract_z
V1    V   0.00000  0.35418  0.43960
V2    V   0.00000  0.35418  0.56040
V3    V   0.00000  0.43960  0.35418
V4    V   0.00000  0.43960  0.64582
V5    V   0.00000  0.56040  0.35418
V6    V   0.00000  0.56040  0.64582
V7    V   0.00000  0.64582  0.43960
V8    V   0.00000  0.64582  0.56040
V9    V   0.06040  0.14582  0.50000
V10   V   0.06040  0.50000  0.14582
V11   V   0.06040  0.50000  0.85418
V12   V   0.06040  0.85418  0.50000
V13   V   0.14582  0.06040  0.50000
V14   V   0.14582  0.50000  0.06040
V15   V   0.14582  0.50000  0.93960
V16   V   0.14582  0.93960  0.50000
V17   V   0.35418  0.00000  0.43960
V18   V   0.35418  0.00000  0.56040
V19   V   0.35418  0.43960  0.00000
V20   V   0.35418  0.56040  0.00000
V21   V   0.43960  0.00000  0.35418
V22   V   0.43960  0.00000  0.64582
V23   V   0.43960  0.35418  0.00000
V24   V   0.43960  0.64582  0.00000
V25   V   0.50000  0.06040  0.14582
V26   V   0.50000  0.06040  0.85418
V27   V   0.50000  0.14582  0.06040
V28   V   0.50000  0.14582  0.93960
V29   V   0.50000  0.85418  0.06040
V30   V   0.50000  0.85418  0.93960
V31   V   0.50000  0.93960  0.14582
V32   V   0.50000  0.93960  0.85418
V33   V   0.56040  0.00000  0.35418
V34   V   0.56040  0.00000  0.64582
V35   V   0.56040  0.35418  0.00000
V36   V   0.56040  0.64582  0.00000
V37   V   0.64582  0.00000  0.43960
V38   V   0.64582  0.00000  0.56040
V39   V   0.64582  0.43960  0.00000
V40   V   0.64582  0.56040  0.00000
V41   V   0.85418  0.06040  0.50000
V42   V   0.85418  0.50000  0.06040
V43   V   0.85418  0.50000  0.93960
V44   V   0.85418  0.93960  0.50000
V45   V   0.93960  0.14582  0.50000
V46   V   0.93960  0.50000  0.14582
V47   V   0.93960  0.50000  0.85418
V48   V   0.93960  0.85418  0.50000
EC1    EC   0.06040  0.28020  0.36562
EC2    EC   0.06040  0.28020  0.63438
EC3    EC   0.06040  0.36562  0.28020
EC4    EC   0.06040  0.36562  0.71980
EC5    EC   0.06040  0.63438  0.28020
EC6    EC   0.06040  0.63438  0.71980
EC7    EC   0.06040  0.71980  0.36562
EC8    EC   0.06040  0.71980  0.63438
EC9    EC   0.13438  0.21980  0.43960
EC10   EC   0.13438  0.21980  0.56040
EC11   EC   0.13438  0.43960  0.21980
EC12   EC   0.13438  0.43960  0.78020
EC13   EC   0.13438  0.56040  0.21980
EC14   EC   0.13438  0.56040  0.78020
EC15   EC   0.13438  0.78020  0.43960
EC16   EC   0.13438  0.78020  0.56040
EC17   EC   0.21980  0.13438  0.43960
EC18   EC   0.21980  0.13438  0.56040
EC19   EC   0.21980  0.43960  0.13438
EC20   EC   0.21980  0.43960  0.86562
EC21   EC   0.21980  0.56040  0.13438
EC22   EC   0.21980  0.56040  0.86562
EC23   EC   0.21980  0.86562  0.43960
EC24   EC   0.21980  0.86562  0.56040
EC25   EC   0.28020  0.06040  0.36562
EC26   EC   0.28020  0.06040  0.63438
EC27   EC   0.28020  0.36562  0.06040
EC28   EC   0.28020  0.36562  0.93960
EC29   EC   0.28020  0.63438  0.06040
EC30   EC   0.28020  0.63438  0.93960
EC31   EC   0.28020  0.93960  0.36562
EC32   EC   0.28020  0.93960  0.63438
EC33   EC   0.36562  0.06040  0.28020
EC34   EC   0.36562  0.06040  0.71980
EC35   EC   0.36562  0.28020  0.06040
EC36   EC   0.36562  0.28020  0.93960
EC37   EC   0.36562  0.71980  0.06040
EC38   EC   0.36562  0.71980  0.93960
EC39   EC   0.36562  0.93960  0.28020
EC40   EC   0.36562  0.93960  0.71980
EC41   EC   0.43960  0.13438  0.21980
EC42   EC   0.43960  0.13438  0.78020
EC43   EC   0.43960  0.21980  0.13438
EC44   EC   0.43960  0.21980  0.86562
EC45   EC   0.43960  0.78020  0.13438
EC46   EC   0.43960  0.78020  0.86562
EC47   EC   0.43960  0.86562  0.21980
EC48   EC   0.43960  0.86562  0.78020
EC49   EC   0.56040  0.13438  0.21980
EC50   EC   0.56040  0.13438  0.78020
EC51   EC   0.56040  0.21980  0.13438
EC52   EC   0.56040  0.21980  0.86562
EC53   EC   0.56040  0.78020  0.13438
EC54   EC   0.56040  0.78020  0.86562
EC55   EC   0.56040  0.86562  0.21980
EC56   EC   0.56040  0.86562  0.78020
EC57   EC   0.63438  0.06040  0.28020
EC58   EC   0.63438  0.06040  0.71980
EC59   EC   0.63438  0.28020  0.06040
EC60   EC   0.63438  0.28020  0.93960
EC61   EC   0.63438  0.71980  0.06040
EC62   EC   0.63438  0.71980  0.93960
EC63   EC   0.63438  0.93960  0.28020
EC64   EC   0.63438  0.93960  0.71980
EC65   EC   0.71980  0.06040  0.36562
EC66   EC   0.71980  0.06040  0.63438
EC67   EC   0.71980  0.36562  0.06040
EC68   EC   0.71980  0.36562  0.93960
EC69   EC   0.71980  0.63438  0.06040
EC70   EC   0.71980  0.63438  0.93960
EC71   EC   0.71980  0.93960  0.36562
EC72   EC   0.71980  0.93960  0.63438
EC73   EC   0.78020  0.13438  0.43960
EC74   EC   0.78020  0.13438  0.56040
EC75   EC   0.78020  0.43960  0.13438
EC76   EC   0.78020  0.43960  0.86562
EC77   EC   0.78020  0.56040  0.13438
EC78   EC   0.78020  0.56040  0.86562
EC79   EC   0.78020  0.86562  0.43960
EC80   EC   0.78020  0.86562  0.56040
EC81   EC   0.86562  0.21980  0.43960
EC82   EC   0.86562  0.21980  0.56040
EC83   EC   0.86562  0.43960  0.21980
EC84   EC   0.86562  0.43960  0.78020
EC85   EC   0.86562  0.56040  0.21980
EC86   EC   0.86562  0.56040  0.78020
EC87   EC   0.86562  0.78020  0.43960
EC88   EC   0.86562  0.78020  0.56040
EC89   EC   0.93960  0.28020  0.36562
EC90   EC   0.93960  0.28020  0.63438
EC91   EC   0.93960  0.36562  0.28020
EC92   EC   0.93960  0.36562  0.71980
EC93   EC   0.93960  0.63438  0.28020
EC94   EC   0.93960  0.63438  0.71980
EC95   EC   0.93960  0.71980  0.36562
EC96   EC   0.93960  0.71980  0.63438
E1    E   0.00000  0.14582  0.50000
E2    E   0.00000  0.28020  0.36562
E3    E   0.00000  0.28020  0.63438
E4    E   0.00000  0.35418  0.50000
E5    E   0.00000  0.36562  0.28020
E6    E   0.00000  0.36562  0.71980
E7    E   0.00000  0.39689  0.39689
E8    E   0.00000  0.39689  0.60311
E9    E   0.00000  0.50000  0.14582
E10   E   0.00000  0.50000  0.35418
E11   E   0.00000  0.50000  0.64582
E12   E   0.00000  0.50000  0.85418
E13   E   0.00000  0.60311  0.39689
E14   E   0.00000  0.60311  0.60311
E15   E   0.00000  0.63438  0.28020
E16   E   0.00000  0.63438  0.71980
E17   E   0.00000  0.64582  0.50000
E18   E   0.00000  0.71980  0.36562
E19   E   0.00000  0.71980  0.63438
E20   E   0.00000  0.85418  0.50000
E21   E   0.03020  0.31719  0.40261
E22   E   0.03020  0.31719  0.59739
E23   E   0.03020  0.40261  0.31719
E24   E   0.03020  0.40261  0.68281
E25   E   0.03020  0.59739  0.31719
E26   E   0.03020  0.59739  0.68281
E27   E   0.03020  0.68281  0.40261
E28   E   0.03020  0.68281  0.59739
E29   E   0.06040  0.32291  0.32291
E30   E   0.06040  0.32291  0.67709
E31   E   0.06040  0.67709  0.32291
E32   E   0.06040  0.67709  0.67709
E33   E   0.09739  0.18281  0.46980
E34   E   0.09739  0.18281  0.53020
E35   E   0.09739  0.25000  0.40261
E36   E   0.09739  0.25000  0.59739
E37   E   0.09739  0.40261  0.25000
E38   E   0.09739  0.40261  0.75000
E39   E   0.09739  0.46980  0.18281
E40   E   0.09739  0.46980  0.81719
E41   E   0.09739  0.53020  0.18281
E42   E   0.09739  0.53020  0.81719
E43   E   0.09739  0.59739  0.25000
E44   E   0.09739  0.59739  0.75000
E45   E   0.09739  0.75000  0.40261
E46   E   0.09739  0.75000  0.59739
E47   E   0.09739  0.81719  0.46980
E48   E   0.09739  0.81719  0.53020
E49   E   0.09739  0.25000  0.40261
E50   E   0.09739  0.25000  0.59739
E51   E   0.09739  0.40261  0.25000
E52   E   0.09739  0.40261  0.75000
E53   E   0.09739  0.59739  0.25000
E54   E   0.09739  0.59739  0.75000
E55   E   0.09739  0.75000  0.40261
E56   E   0.09739  0.75000  0.59739
E57   E   0.10311  0.10311  0.50000
E58   E   0.10311  0.50000  0.10311
E59   E   0.10311  0.50000  0.89689
E60   E   0.10311  0.89689  0.50000
E61   E   0.13438  0.21980  0.50000
E62   E   0.13438  0.50000  0.21980
E63   E   0.13438  0.50000  0.78020
E64   E   0.13438  0.78020  0.50000
E65   E   0.14582  0.00000  0.50000
E66   E   0.14582  0.50000  0.00000
E67   E   0.17709  0.17709  0.43960
E68   E   0.17709  0.17709  0.56040
E69   E   0.17709  0.43960  0.17709
E70   E   0.17709  0.43960  0.82291
E71   E   0.17709  0.56040  0.17709
E72   E   0.17709  0.56040  0.82291
E73   E   0.17709  0.82291  0.43960
E74   E   0.17709  0.82291  0.56040
E75   E   0.18281  0.09739  0.46980
E76   E   0.18281  0.09739  0.53020
E77   E   0.18281  0.46980  0.09739
E78   E   0.18281  0.46980  0.90261
E79   E   0.18281  0.53020  0.09739
E80   E   0.18281  0.53020  0.90261
E81   E   0.18281  0.90261  0.46980
E82   E   0.18281  0.90261  0.53020
E83   E   0.21980  0.13438  0.50000
E84   E   0.21980  0.50000  0.13438
E85   E   0.21980  0.50000  0.86562
E86   E   0.21980  0.86562  0.50000
E87   E   0.25000  0.09739  0.40261
E88   E   0.25000  0.09739  0.59739
E89   E   0.25000  0.09739  0.40261
E90   E   0.25000  0.09739  0.59739
E91   E   0.25000  0.40261  0.09739
E92   E   0.25000  0.40261  0.09739
E93   E   0.25000  0.40261  0.90261
E94   E   0.25000  0.59739  0.09739
E95   E   0.25000  0.59739  0.09739
E96   E   0.25000  0.59739  0.90261
E97   E   0.25000  0.90261  0.40261
E98   E   0.25000  0.90261  0.59739
E99   E   0.28020  0.00000  0.36562
E100  E   0.28020  0.00000  0.63438
E101  E   0.28020  0.36562  0.00000
E102  E   0.28020  0.63438  0.00000
E103  E   0.31719  0.03020  0.40261
E104  E   0.31719  0.03020  0.59739
E105  E   0.31719  0.40261  0.03020
E106  E   0.31719  0.40261  0.96980
E107  E   0.31719  0.59739  0.03020
E108  E   0.31719  0.59739  0.96980
E109  E   0.31719  0.96980  0.40261
E110  E   0.31719  0.96980  0.59739
E111  E   0.32291  0.06040  0.32291
E112  E   0.32291  0.06040  0.67709
E113  E   0.32291  0.32291  0.06040
E114  E   0.32291  0.32291  0.93960
E115  E   0.32291  0.67709  0.06040
E116  E   0.32291  0.67709  0.93960
E117  E   0.32291  0.93960  0.32291
E118  E   0.32291  0.93960  0.67709
E119  E   0.35418  0.00000  0.50000
E120  E   0.35418  0.50000  0.00000
E121  E   0.36562  0.00000  0.28020
E122  E   0.36562  0.00000  0.71980
E123  E   0.36562  0.28020  0.00000
E124  E   0.36562  0.71980  0.00000
E125  E   0.39689  0.00000  0.39689
E126  E   0.39689  0.00000  0.60311
E127  E   0.39689  0.39689  0.00000
E128  E   0.39689  0.60311  0.00000
E129  E   0.40261  0.03020  0.31719
E130  E   0.40261  0.03020  0.68281
E131  E   0.40261  0.09739  0.25000
E132  E   0.40261  0.09739  0.75000
E133  E   0.40261  0.09739  0.25000
E134  E   0.40261  0.09739  0.75000
E135  E   0.40261  0.25000  0.09739
E136  E   0.40261  0.25000  0.09739
E137  E   0.40261  0.25000  0.90261
E138  E   0.40261  0.31719  0.03020
E139  E   0.40261  0.31719  0.96980
E140  E   0.40261  0.68281  0.03020
E141  E   0.40261  0.68281  0.96980
E142  E   0.40261  0.75000  0.09739
E143  E   0.40261  0.75000  0.09739
E144  E   0.40261  0.75000  0.90261
E145  E   0.40261  0.90261  0.25000
E146  E   0.40261  0.90261  0.75000
E147  E   0.40261  0.96980  0.31719
E148  E   0.40261  0.96980  0.68281
E149  E   0.43960  0.17709  0.17709
E150  E   0.43960  0.17709  0.82291
E151  E   0.43960  0.82291  0.17709
E152  E   0.43960  0.82291  0.82291
E153  E   0.46980  0.09739  0.18281
E154  E   0.46980  0.09739  0.81719
E155  E   0.46980  0.18281  0.09739
E156  E   0.46980  0.18281  0.90261
E157  E   0.46980  0.81719  0.09739
E158  E   0.46980  0.81719  0.90261
E159  E   0.46980  0.90261  0.18281
E160  E   0.46980  0.90261  0.81719
E161  E   0.50000  0.00000  0.14582
E162  E   0.50000  0.00000  0.35418
E163  E   0.50000  0.00000  0.64582
E164  E   0.50000  0.00000  0.85418
E165  E   0.50000  0.10311  0.10311
E166  E   0.50000  0.10311  0.89689
E167  E   0.50000  0.13438  0.21980
E168  E   0.50000  0.13438  0.78020
E169  E   0.50000  0.14582  0.00000
E170  E   0.50000  0.21980  0.13438
E171  E   0.50000  0.21980  0.86562
E172  E   0.50000  0.35418  0.00000
E173  E   0.50000  0.64582  0.00000
E174  E   0.50000  0.78020  0.13438
E175  E   0.50000  0.78020  0.86562
E176  E   0.50000  0.85418  0.00000
E177  E   0.50000  0.86562  0.21980
E178  E   0.50000  0.86562  0.78020
E179  E   0.50000  0.89689  0.10311
E180  E   0.50000  0.89689  0.89689
E181  E   0.53020  0.09739  0.18281
E182  E   0.53020  0.09739  0.81719
E183  E   0.53020  0.18281  0.09739
E184  E   0.53020  0.18281  0.90261
E185  E   0.53020  0.81719  0.09739
E186  E   0.53020  0.81719  0.90261
E187  E   0.53020  0.90261  0.18281
E188  E   0.53020  0.90261  0.81719
E189  E   0.56040  0.17709  0.17709
E190  E   0.56040  0.17709  0.82291
E191  E   0.56040  0.82291  0.17709
E192  E   0.56040  0.82291  0.82291
E193  E   0.59739  0.03020  0.31719
E194  E   0.59739  0.03020  0.68281
E195  E   0.59739  0.09739  0.25000
E196  E   0.59739  0.09739  0.75000
E197  E   0.59739  0.09739  0.25000
E198  E   0.59739  0.09739  0.75000
E199  E   0.59739  0.25000  0.09739
E200  E   0.59739  0.25000  0.09739
E201  E   0.59739  0.25000  0.90261
E202  E   0.59739  0.31719  0.03020
E203  E   0.59739  0.31719  0.96980
E204  E   0.59739  0.68281  0.03020
E205  E   0.59739  0.68281  0.96980
E206  E   0.59739  0.75000  0.09739
E207  E   0.59739  0.75000  0.09739
E208  E   0.59739  0.75000  0.90261
E209  E   0.59739  0.90261  0.25000
E210  E   0.59739  0.90261  0.75000
E211  E   0.59739  0.96980  0.31719
E212  E   0.59739  0.96980  0.68281
E213  E   0.60311  0.00000  0.39689
E214  E   0.60311  0.00000  0.60311
E215  E   0.60311  0.39689  0.00000
E216  E   0.60311  0.60311  0.00000
E217  E   0.63438  0.00000  0.28020
E218  E   0.63438  0.00000  0.71980
E219  E   0.63438  0.28020  0.00000
E220  E   0.63438  0.71980  0.00000
E221  E   0.64582  0.00000  0.50000
E222  E   0.64582  0.50000  0.00000
E223  E   0.67709  0.06040  0.32291
E224  E   0.67709  0.06040  0.67709
E225  E   0.67709  0.32291  0.06040
E226  E   0.67709  0.32291  0.93960
E227  E   0.67709  0.67709  0.06040
E228  E   0.67709  0.67709  0.93960
E229  E   0.67709  0.93960  0.32291
E230  E   0.67709  0.93960  0.67709
E231  E   0.68281  0.03020  0.40261
E232  E   0.68281  0.03020  0.59739
E233  E   0.68281  0.40261  0.03020
E234  E   0.68281  0.40261  0.96980
E235  E   0.68281  0.59739  0.03020
E236  E   0.68281  0.59739  0.96980
E237  E   0.68281  0.96980  0.40261
E238  E   0.68281  0.96980  0.59739
E239  E   0.71980  0.00000  0.36562
E240  E   0.71980  0.00000  0.63438
E241  E   0.71980  0.36562  0.00000
E242  E   0.71980  0.63438  0.00000
E243  E   0.75000  0.09739  0.40261
E244  E   0.75000  0.09739  0.59739
E245  E   0.75000  0.09739  0.40261
E246  E   0.75000  0.09739  0.59739
E247  E   0.75000  0.40261  0.09739
E248  E   0.75000  0.40261  0.09739
E249  E   0.75000  0.40261  0.90261
E250  E   0.75000  0.59739  0.09739
E251  E   0.75000  0.59739  0.09739
E252  E   0.75000  0.59739  0.90261
E253  E   0.75000  0.90261  0.40261
E254  E   0.75000  0.90261  0.59739
E255  E   0.78020  0.13438  0.50000
E256  E   0.78020  0.50000  0.13438
E257  E   0.78020  0.50000  0.86562
E258  E   0.78020  0.86562  0.50000
E259  E   0.81719  0.09739  0.46980
E260  E   0.81719  0.09739  0.53020
E261  E   0.81719  0.46980  0.09739
E262  E   0.81719  0.46980  0.90261
E263  E   0.81719  0.53020  0.09739
E264  E   0.81719  0.53020  0.90261
E265  E   0.81719  0.90261  0.46980
E266  E   0.81719  0.90261  0.53020
E267  E   0.82291  0.17709  0.43960
E268  E   0.82291  0.17709  0.56040
E269  E   0.82291  0.43960  0.17709
E270  E   0.82291  0.43960  0.82291
E271  E   0.82291  0.56040  0.17709
E272  E   0.82291  0.56040  0.82291
E273  E   0.82291  0.82291  0.43960
E274  E   0.82291  0.82291  0.56040
E275  E   0.85418  0.00000  0.50000
E276  E   0.85418  0.50000  0.00000
E277  E   0.86562  0.21980  0.50000
E278  E   0.86562  0.50000  0.21980
E279  E   0.86562  0.50000  0.78020
E280  E   0.86562  0.78020  0.50000
E281  E   0.89689  0.10311  0.50000
E282  E   0.89689  0.50000  0.10311
E283  E   0.89689  0.50000  0.89689
E284  E   0.89689  0.89689  0.50000
E285  E   0.90261  0.18281  0.46980
E286  E   0.90261  0.18281  0.53020
E287  E   0.90261  0.25000  0.40261
E288  E   0.90261  0.25000  0.59739
E289  E   0.90261  0.40261  0.25000
E290  E   0.90261  0.40261  0.75000
E291  E   0.90261  0.46980  0.18281
E292  E   0.90261  0.46980  0.81719
E293  E   0.90261  0.53020  0.18281
E294  E   0.90261  0.53020  0.81719
E295  E   0.90261  0.59739  0.25000
E296  E   0.90261  0.59739  0.75000
E297  E   0.90261  0.75000  0.40261
E298  E   0.90261  0.75000  0.59739
E299  E   0.90261  0.81719  0.46980
E300  E   0.90261  0.81719  0.53020
E301  E   0.93960  0.32291  0.32291
E302  E   0.93960  0.32291  0.67709
E303  E   0.93960  0.67709  0.32291
E304  E   0.93960  0.67709  0.67709
E305  E   0.96980  0.31719  0.40261
E306  E   0.96980  0.31719  0.59739
E307  E   0.96980  0.40261  0.31719
E308  E   0.96980  0.40261  0.68281
E309  E   0.96980  0.59739  0.31719
E310  E   0.96980  0.59739  0.68281
E311  E   0.96980  0.68281  0.40261
E312  E   0.96980  0.68281  0.59739
loop_
