data_fud_P-43m  hall_number: 511, V_con: 4, EC_con: 4
_audit_creation_date              2025-03-06
_audit_creation_method            'MOFbuilder_1.0'
_symmetry_space_group_name_H-M    'P1'
_symmetry_Int_Tables_number       1
_symmetry_cell_setting            triclinic
loop_
_symmetry_equiv_pos_as_xyz
  x,y,z
_cell_length_a                    38.533699999999996
_cell_length_b                    38.533699999999996
_cell_length_c                    38.533699999999996
_cell_angle_alpha                 90.0
_cell_angle_beta                  90.0
_cell_angle_gamma                 90.0
loop_
_atom_site_label
_atom_site_type_symbol
_atom_site_fract_x
_atom_site_fract_y
_atom_site_fract_z
V1    V   0.22474  0.40825  0.59175
V2    V   0.22474  0.59175  0.40825
V3    V   0.40825  0.22474  0.59175
V4    V   0.40825  0.40825  0.77526
V5    V   0.40825  0.59175  0.22474
V6    V   0.40825  0.77526  0.40825
V7    V   0.59175  0.22474  0.40825
V8    V   0.59175  0.40825  0.22474
V9    V   0.59175  0.59175  0.77526
V10   V   0.59175  0.77526  0.59175
V11   V   0.77526  0.40825  0.40825
V12   V   0.77526  0.59175  0.59175
EC1    EC   0.00000  0.50000  0.50000
EC2    EC   0.50000  0.00000  0.50000
EC3    EC   0.50000  0.50000  0.00000
E1    E   0.11237  0.45412  0.54588
E2    E   0.11237  0.45412  0.54588
E3    E   0.11237  0.54588  0.45412
E4    E   0.11237  0.54588  0.45412
E5    E   0.22474  0.50000  0.50000
E6    E   0.31650  0.31650  0.59175
E7    E   0.31650  0.40825  0.68350
E8    E   0.31650  0.59175  0.31650
E9    E   0.31650  0.68350  0.40825
E10   E   0.40825  0.31650  0.68350
E11   E   0.40825  0.68350  0.31650
E12   E   0.45412  0.11237  0.54588
E13   E   0.45412  0.45412  0.88763
E14   E   0.45412  0.54588  0.11237
E15   E   0.45412  0.88763  0.45412
E16   E   0.45412  0.11237  0.54588
E17   E   0.45412  0.45412  0.88763
E18   E   0.45412  0.54588  0.11237
E19   E   0.45412  0.88763  0.45412
E20   E   0.50000  0.22474  0.50000
E21   E   0.50000  0.50000  0.22474
E22   E   0.50000  0.50000  0.77526
E23   E   0.50000  0.77526  0.50000
E24   E   0.54588  0.11237  0.45412
E25   E   0.54588  0.45412  0.11237
E26   E   0.54588  0.54588  0.88763
E27   E   0.54588  0.88763  0.54588
E28   E   0.54588  0.11237  0.45412
E29   E   0.54588  0.45412  0.11237
E30   E   0.54588  0.54588  0.88763
E31   E   0.54588  0.88763  0.54588
E32   E   0.59175  0.31650  0.31650
E33   E   0.59175  0.68350  0.68350
E34   E   0.68350  0.31650  0.40825
E35   E   0.68350  0.40825  0.31650
E36   E   0.68350  0.59175  0.68350
E37   E   0.68350  0.68350  0.59175
E38   E   0.77526  0.50000  0.50000
E39   E   0.88763  0.45412  0.45412
E40   E   0.88763  0.45412  0.45412
E41   E   0.88763  0.54588  0.54588
E42   E   0.88763  0.54588  0.54588
loop_
