data_fui_Im-3m  hall_number: 529, V_con: 4, EC_con: 3
_audit_creation_date              2025-03-06
_audit_creation_method            'MOFbuilder_1.0'
_symmetry_space_group_name_H-M    'P1'
_symmetry_Int_Tables_number       1
_symmetry_cell_setting            triclinic
loop_
_symmetry_equiv_pos_as_xyz
  x,y,z
_cell_length_a                    81.61749999999999
_cell_length_b                    81.61749999999999
_cell_length_c                    81.61749999999999
_cell_angle_alpha                 90.0
_cell_angle_beta                  90.0
_cell_angle_gamma                 90.0
loop_
_atom_site_label
_atom_site_type_symbol
_atom_site_fract_x
_atom_site_fract_y
_atom_site_fract_z
V1    V   0.06126  0.27042  0.35706
V2    V   0.06126  0.27042  0.64294
V3    V   0.06126  0.35706  0.27042
V4    V   0.06126  0.35706  0.72958
V5    V   0.06126  0.64294  0.27042
V6    V   0.06126  0.64294  0.72958
V7    V   0.06126  0.72958  0.35706
V8    V   0.06126  0.72958  0.64294
V9    V   0.14294  0.22958  0.43874
V10   V   0.14294  0.22958  0.56126
V11   V   0.14294  0.43874  0.22958
V12   V   0.14294  0.43874  0.77042
V13   V   0.14294  0.56126  0.22958
V14   V   0.14294  0.56126  0.77042
V15   V   0.14294  0.77042  0.43874
V16   V   0.14294  0.77042  0.56126
V17   V   0.22958  0.14294  0.43874
V18   V   0.22958  0.14294  0.56126
V19   V   0.22958  0.43874  0.14294
V20   V   0.22958  0.43874  0.85706
V21   V   0.22958  0.56126  0.14294
V22   V   0.22958  0.56126  0.85706
V23   V   0.22958  0.85706  0.43874
V24   V   0.22958  0.85706  0.56126
V25   V   0.27042  0.06126  0.35706
V26   V   0.27042  0.06126  0.64294
V27   V   0.27042  0.35706  0.06126
V28   V   0.27042  0.35706  0.93874
V29   V   0.27042  0.64294  0.06126
V30   V   0.27042  0.64294  0.93874
V31   V   0.27042  0.93874  0.35706
V32   V   0.27042  0.93874  0.64294
V33   V   0.35706  0.06126  0.27042
V34   V   0.35706  0.06126  0.72958
V35   V   0.35706  0.27042  0.06126
V36   V   0.35706  0.27042  0.93874
V37   V   0.35706  0.72958  0.06126
V38   V   0.35706  0.72958  0.93874
V39   V   0.35706  0.93874  0.27042
V40   V   0.35706  0.93874  0.72958
V41   V   0.43874  0.14294  0.22958
V42   V   0.43874  0.14294  0.77042
V43   V   0.43874  0.22958  0.14294
V44   V   0.43874  0.22958  0.85706
V45   V   0.43874  0.77042  0.14294
V46   V   0.43874  0.77042  0.85706
V47   V   0.43874  0.85706  0.22958
V48   V   0.43874  0.85706  0.77042
V49   V   0.56126  0.14294  0.22958
V50   V   0.56126  0.14294  0.77042
V51   V   0.56126  0.22958  0.14294
V52   V   0.56126  0.22958  0.85706
V53   V   0.56126  0.77042  0.14294
V54   V   0.56126  0.77042  0.85706
V55   V   0.56126  0.85706  0.22958
V56   V   0.56126  0.85706  0.77042
V57   V   0.64294  0.06126  0.27042
V58   V   0.64294  0.06126  0.72958
V59   V   0.64294  0.27042  0.06126
V60   V   0.64294  0.27042  0.93874
V61   V   0.64294  0.72958  0.06126
V62   V   0.64294  0.72958  0.93874
V63   V   0.64294  0.93874  0.27042
V64   V   0.64294  0.93874  0.72958
V65   V   0.72958  0.06126  0.35706
V66   V   0.72958  0.06126  0.64294
V67   V   0.72958  0.35706  0.06126
V68   V   0.72958  0.35706  0.93874
V69   V   0.72958  0.64294  0.06126
V70   V   0.72958  0.64294  0.93874
V71   V   0.72958  0.93874  0.35706
V72   V   0.72958  0.93874  0.64294
V73   V   0.77042  0.14294  0.43874
V74   V   0.77042  0.14294  0.56126
V75   V   0.77042  0.43874  0.14294
V76   V   0.77042  0.43874  0.85706
V77   V   0.77042  0.56126  0.14294
V78   V   0.77042  0.56126  0.85706
V79   V   0.77042  0.85706  0.43874
V80   V   0.77042  0.85706  0.56126
V81   V   0.85706  0.22958  0.43874
V82   V   0.85706  0.22958  0.56126
V83   V   0.85706  0.43874  0.22958
V84   V   0.85706  0.43874  0.77042
V85   V   0.85706  0.56126  0.22958
V86   V   0.85706  0.56126  0.77042
V87   V   0.85706  0.77042  0.43874
V88   V   0.85706  0.77042  0.56126
V89   V   0.93874  0.27042  0.35706
V90   V   0.93874  0.27042  0.64294
V91   V   0.93874  0.35706  0.27042
V92   V   0.93874  0.35706  0.72958
V93   V   0.93874  0.64294  0.27042
V94   V   0.93874  0.64294  0.72958
V95   V   0.93874  0.72958  0.35706
V96   V   0.93874  0.72958  0.64294
EC1    EC   0.06126  0.14790  0.35734
EC2    EC   0.06126  0.14790  0.64266
EC3    EC   0.06126  0.35734  0.14790
EC4    EC   0.06126  0.35734  0.85210
EC5    EC   0.06126  0.64266  0.14790
EC6    EC   0.06126  0.64266  0.85210
EC7    EC   0.06126  0.85210  0.35734
EC8    EC   0.06126  0.85210  0.64266
EC9    EC   0.14266  0.35210  0.43874
EC10   EC   0.14266  0.35210  0.56126
EC11   EC   0.14266  0.43874  0.35210
EC12   EC   0.14266  0.43874  0.64790
EC13   EC   0.14266  0.56126  0.35210
EC14   EC   0.14266  0.56126  0.64790
EC15   EC   0.14266  0.64790  0.43874
EC16   EC   0.14266  0.64790  0.56126
EC17   EC   0.14790  0.06126  0.35734
EC18   EC   0.14790  0.06126  0.64266
EC19   EC   0.14790  0.35734  0.06126
EC20   EC   0.14790  0.35734  0.93874
EC21   EC   0.14790  0.64266  0.06126
EC22   EC   0.14790  0.64266  0.93874
EC23   EC   0.14790  0.93874  0.35734
EC24   EC   0.14790  0.93874  0.64266
EC25   EC   0.35210  0.14266  0.43874
EC26   EC   0.35210  0.14266  0.56126
EC27   EC   0.35210  0.43874  0.14266
EC28   EC   0.35210  0.43874  0.85734
EC29   EC   0.35210  0.56126  0.14266
EC30   EC   0.35210  0.56126  0.85734
EC31   EC   0.35210  0.85734  0.43874
EC32   EC   0.35210  0.85734  0.56126
EC33   EC   0.35734  0.06126  0.14790
EC34   EC   0.35734  0.06126  0.85210
EC35   EC   0.35734  0.14790  0.06126
EC36   EC   0.35734  0.14790  0.93874
EC37   EC   0.35734  0.85210  0.06126
EC38   EC   0.35734  0.85210  0.93874
EC39   EC   0.35734  0.93874  0.14790
EC40   EC   0.35734  0.93874  0.85210
EC41   EC   0.43874  0.14266  0.35210
EC42   EC   0.43874  0.14266  0.64790
EC43   EC   0.43874  0.35210  0.14266
EC44   EC   0.43874  0.35210  0.85734
EC45   EC   0.43874  0.64790  0.14266
EC46   EC   0.43874  0.64790  0.85734
EC47   EC   0.43874  0.85734  0.35210
EC48   EC   0.43874  0.85734  0.64790
EC49   EC   0.56126  0.14266  0.35210
EC50   EC   0.56126  0.14266  0.64790
EC51   EC   0.56126  0.35210  0.14266
EC52   EC   0.56126  0.35210  0.85734
EC53   EC   0.56126  0.64790  0.14266
EC54   EC   0.56126  0.64790  0.85734
EC55   EC   0.56126  0.85734  0.35210
EC56   EC   0.56126  0.85734  0.64790
EC57   EC   0.64266  0.06126  0.14790
EC58   EC   0.64266  0.06126  0.85210
EC59   EC   0.64266  0.14790  0.06126
EC60   EC   0.64266  0.14790  0.93874
EC61   EC   0.64266  0.85210  0.06126
EC62   EC   0.64266  0.85210  0.93874
EC63   EC   0.64266  0.93874  0.14790
EC64   EC   0.64266  0.93874  0.85210
EC65   EC   0.64790  0.14266  0.43874
EC66   EC   0.64790  0.14266  0.56126
EC67   EC   0.64790  0.43874  0.14266
EC68   EC   0.64790  0.43874  0.85734
EC69   EC   0.64790  0.56126  0.14266
EC70   EC   0.64790  0.56126  0.85734
EC71   EC   0.64790  0.85734  0.43874
EC72   EC   0.64790  0.85734  0.56126
EC73   EC   0.85210  0.06126  0.35734
EC74   EC   0.85210  0.06126  0.64266
EC75   EC   0.85210  0.35734  0.06126
EC76   EC   0.85210  0.35734  0.93874
EC77   EC   0.85210  0.64266  0.06126
EC78   EC   0.85210  0.64266  0.93874
EC79   EC   0.85210  0.93874  0.35734
EC80   EC   0.85210  0.93874  0.64266
EC81   EC   0.85734  0.35210  0.43874
EC82   EC   0.85734  0.35210  0.56126
EC83   EC   0.85734  0.43874  0.35210
EC84   EC   0.85734  0.43874  0.64790
EC85   EC   0.85734  0.56126  0.35210
EC86   EC   0.85734  0.56126  0.64790
EC87   EC   0.85734  0.64790  0.43874
EC88   EC   0.85734  0.64790  0.56126
EC89   EC   0.93874  0.14790  0.35734
EC90   EC   0.93874  0.14790  0.64266
EC91   EC   0.93874  0.35734  0.14790
EC92   EC   0.93874  0.35734  0.85210
EC93   EC   0.93874  0.64266  0.14790
EC94   EC   0.93874  0.64266  0.85210
EC95   EC   0.93874  0.85210  0.35734
EC96   EC   0.93874  0.85210  0.64266
E1    E   0.00000  0.14790  0.35734
E2    E   0.00000  0.14790  0.64266
E3    E   0.00000  0.27042  0.35706
E4    E   0.00000  0.27042  0.64294
E5    E   0.00000  0.35706  0.27042
E6    E   0.00000  0.35706  0.72958
E7    E   0.00000  0.35734  0.14790
E8    E   0.00000  0.35734  0.85210
E9    E   0.00000  0.64266  0.14790
E10   E   0.00000  0.64266  0.85210
E11   E   0.00000  0.64294  0.27042
E12   E   0.00000  0.64294  0.72958
E13   E   0.00000  0.72958  0.35706
E14   E   0.00000  0.72958  0.64294
E15   E   0.00000  0.85210  0.35734
E16   E   0.00000  0.85210  0.64266
E17   E   0.06126  0.20916  0.35720
E18   E   0.06126  0.20916  0.64280
E19   E   0.06126  0.31374  0.31374
E20   E   0.06126  0.31374  0.68626
E21   E   0.06126  0.35720  0.20916
E22   E   0.06126  0.35720  0.79084
E23   E   0.06126  0.64280  0.20916
E24   E   0.06126  0.64280  0.79084
E25   E   0.06126  0.68626  0.31374
E26   E   0.06126  0.68626  0.68626
E27   E   0.06126  0.79084  0.35720
E28   E   0.06126  0.79084  0.64280
E29   E   0.10210  0.25000  0.39790
E30   E   0.10210  0.25000  0.60210
E31   E   0.10210  0.39790  0.25000
E32   E   0.10210  0.39790  0.75000
E33   E   0.10210  0.60210  0.25000
E34   E   0.10210  0.60210  0.75000
E35   E   0.10210  0.75000  0.39790
E36   E   0.10210  0.75000  0.60210
E37   E   0.10210  0.25000  0.39790
E38   E   0.10210  0.25000  0.60210
E39   E   0.10210  0.39790  0.25000
E40   E   0.10210  0.39790  0.75000
E41   E   0.10210  0.60210  0.25000
E42   E   0.10210  0.60210  0.75000
E43   E   0.10210  0.75000  0.39790
E44   E   0.10210  0.75000  0.60210
E45   E   0.10458  0.10458  0.35734
E46   E   0.10458  0.10458  0.64266
E47   E   0.10458  0.35734  0.10458
E48   E   0.10458  0.35734  0.89542
E49   E   0.10458  0.64266  0.10458
E50   E   0.10458  0.64266  0.89542
E51   E   0.10458  0.89542  0.35734
E52   E   0.10458  0.89542  0.64266
E53   E   0.14266  0.35210  0.50000
E54   E   0.14266  0.39542  0.39542
E55   E   0.14266  0.39542  0.60458
E56   E   0.14266  0.50000  0.35210
E57   E   0.14266  0.50000  0.64790
E58   E   0.14266  0.60458  0.39542
E59   E   0.14266  0.60458  0.60458
E60   E   0.14266  0.64790  0.50000
E61   E   0.14280  0.29084  0.43874
E62   E   0.14280  0.29084  0.56126
E63   E   0.14280  0.43874  0.29084
E64   E   0.14280  0.43874  0.70916
E65   E   0.14280  0.56126  0.29084
E66   E   0.14280  0.56126  0.70916
E67   E   0.14280  0.70916  0.43874
E68   E   0.14280  0.70916  0.56126
E69   E   0.14294  0.22958  0.50000
E70   E   0.14294  0.50000  0.22958
E71   E   0.14294  0.50000  0.77042
E72   E   0.14294  0.77042  0.50000
E73   E   0.14790  0.00000  0.35734
E74   E   0.14790  0.00000  0.64266
E75   E   0.14790  0.35734  0.00000
E76   E   0.14790  0.64266  0.00000
E77   E   0.18626  0.18626  0.43874
E78   E   0.18626  0.18626  0.56126
E79   E   0.18626  0.43874  0.18626
E80   E   0.18626  0.43874  0.81374
E81   E   0.18626  0.56126  0.18626
E82   E   0.18626  0.56126  0.81374
E83   E   0.18626  0.81374  0.43874
E84   E   0.18626  0.81374  0.56126
E85   E   0.20916  0.06126  0.35720
E86   E   0.20916  0.06126  0.64280
E87   E   0.20916  0.35720  0.06126
E88   E   0.20916  0.35720  0.93874
E89   E   0.20916  0.64280  0.06126
E90   E   0.20916  0.64280  0.93874
E91   E   0.20916  0.93874  0.35720
E92   E   0.20916  0.93874  0.64280
E93   E   0.22958  0.14294  0.50000
E94   E   0.22958  0.50000  0.14294
E95   E   0.22958  0.50000  0.85706
E96   E   0.22958  0.85706  0.50000
E97   E   0.25000  0.10210  0.39790
E98   E   0.25000  0.10210  0.60210
E99   E   0.25000  0.10210  0.39790
E100  E   0.25000  0.10210  0.60210
E101  E   0.25000  0.39790  0.10210
E102  E   0.25000  0.39790  0.89790
E103  E   0.25000  0.39790  0.10210
E104  E   0.25000  0.39790  0.89790
E105  E   0.25000  0.60210  0.10210
E106  E   0.25000  0.60210  0.89790
E107  E   0.25000  0.60210  0.10210
E108  E   0.25000  0.60210  0.89790
E109  E   0.25000  0.89790  0.39790
E110  E   0.25000  0.89790  0.60210
E111  E   0.25000  0.89790  0.39790
E112  E   0.25000  0.89790  0.60210
E113  E   0.27042  0.00000  0.35706
E114  E   0.27042  0.00000  0.64294
E115  E   0.27042  0.35706  0.00000
E116  E   0.27042  0.64294  0.00000
E117  E   0.29084  0.14280  0.43874
E118  E   0.29084  0.14280  0.56126
E119  E   0.29084  0.43874  0.14280
E120  E   0.29084  0.43874  0.85720
E121  E   0.29084  0.56126  0.14280
E122  E   0.29084  0.56126  0.85720
E123  E   0.29084  0.85720  0.43874
E124  E   0.29084  0.85720  0.56126
E125  E   0.31374  0.06126  0.31374
E126  E   0.31374  0.06126  0.68626
E127  E   0.31374  0.31374  0.06126
E128  E   0.31374  0.31374  0.93874
E129  E   0.31374  0.68626  0.06126
E130  E   0.31374  0.68626  0.93874
E131  E   0.31374  0.93874  0.31374
E132  E   0.31374  0.93874  0.68626
E133  E   0.35210  0.14266  0.50000
E134  E   0.35210  0.50000  0.14266
E135  E   0.35210  0.50000  0.85734
E136  E   0.35210  0.85734  0.50000
E137  E   0.35706  0.00000  0.27042
E138  E   0.35706  0.00000  0.72958
E139  E   0.35706  0.27042  0.00000
E140  E   0.35706  0.72958  0.00000
E141  E   0.35720  0.06126  0.20916
E142  E   0.35720  0.06126  0.79084
E143  E   0.35720  0.20916  0.06126
E144  E   0.35720  0.20916  0.93874
E145  E   0.35720  0.79084  0.06126
E146  E   0.35720  0.79084  0.93874
E147  E   0.35720  0.93874  0.20916
E148  E   0.35720  0.93874  0.79084
E149  E   0.35734  0.00000  0.14790
E150  E   0.35734  0.00000  0.85210
E151  E   0.35734  0.10458  0.10458
E152  E   0.35734  0.10458  0.89542
E153  E   0.35734  0.14790  0.00000
E154  E   0.35734  0.85210  0.00000
E155  E   0.35734  0.89542  0.10458
E156  E   0.35734  0.89542  0.89542
E157  E   0.39542  0.14266  0.39542
E158  E   0.39542  0.14266  0.60458
E159  E   0.39542  0.39542  0.14266
E160  E   0.39542  0.39542  0.85734
E161  E   0.39542  0.60458  0.14266
E162  E   0.39542  0.60458  0.85734
E163  E   0.39542  0.85734  0.39542
E164  E   0.39542  0.85734  0.60458
E165  E   0.39790  0.10210  0.25000
E166  E   0.39790  0.10210  0.75000
E167  E   0.39790  0.25000  0.10210
E168  E   0.39790  0.25000  0.89790
E169  E   0.39790  0.75000  0.10210
E170  E   0.39790  0.75000  0.89790
E171  E   0.39790  0.89790  0.25000
E172  E   0.39790  0.89790  0.75000
E173  E   0.39790  0.10210  0.25000
E174  E   0.39790  0.10210  0.75000
E175  E   0.39790  0.25000  0.10210
E176  E   0.39790  0.25000  0.89790
E177  E   0.39790  0.75000  0.10210
E178  E   0.39790  0.75000  0.89790
E179  E   0.39790  0.89790  0.25000
E180  E   0.39790  0.89790  0.75000
E181  E   0.43874  0.14280  0.29084
E182  E   0.43874  0.14280  0.70916
E183  E   0.43874  0.18626  0.18626
E184  E   0.43874  0.18626  0.81374
E185  E   0.43874  0.29084  0.14280
E186  E   0.43874  0.29084  0.85720
E187  E   0.43874  0.70916  0.14280
E188  E   0.43874  0.70916  0.85720
E189  E   0.43874  0.81374  0.18626
E190  E   0.43874  0.81374  0.81374
E191  E   0.43874  0.85720  0.29084
E192  E   0.43874  0.85720  0.70916
E193  E   0.50000  0.14266  0.35210
E194  E   0.50000  0.14266  0.64790
E195  E   0.50000  0.14294  0.22958
E196  E   0.50000  0.14294  0.77042
E197  E   0.50000  0.22958  0.14294
E198  E   0.50000  0.22958  0.85706
E199  E   0.50000  0.35210  0.14266
E200  E   0.50000  0.35210  0.85734
E201  E   0.50000  0.64790  0.14266
E202  E   0.50000  0.64790  0.85734
E203  E   0.50000  0.77042  0.14294
E204  E   0.50000  0.77042  0.85706
E205  E   0.50000  0.85706  0.22958
E206  E   0.50000  0.85706  0.77042
E207  E   0.50000  0.85734  0.35210
E208  E   0.50000  0.85734  0.64790
E209  E   0.56126  0.14280  0.29084
E210  E   0.56126  0.14280  0.70916
E211  E   0.56126  0.18626  0.18626
E212  E   0.56126  0.18626  0.81374
E213  E   0.56126  0.29084  0.14280
E214  E   0.56126  0.29084  0.85720
E215  E   0.56126  0.70916  0.14280
E216  E   0.56126  0.70916  0.85720
E217  E   0.56126  0.81374  0.18626
E218  E   0.56126  0.81374  0.81374
E219  E   0.56126  0.85720  0.29084
E220  E   0.56126  0.85720  0.70916
E221  E   0.60210  0.10210  0.25000
E222  E   0.60210  0.10210  0.75000
E223  E   0.60210  0.25000  0.10210
E224  E   0.60210  0.25000  0.89790
E225  E   0.60210  0.75000  0.10210
E226  E   0.60210  0.75000  0.89790
E227  E   0.60210  0.89790  0.25000
E228  E   0.60210  0.89790  0.75000
E229  E   0.60210  0.10210  0.25000
E230  E   0.60210  0.10210  0.75000
E231  E   0.60210  0.25000  0.10210
E232  E   0.60210  0.25000  0.89790
E233  E   0.60210  0.75000  0.10210
E234  E   0.60210  0.75000  0.89790
E235  E   0.60210  0.89790  0.25000
E236  E   0.60210  0.89790  0.75000
E237  E   0.60458  0.14266  0.39542
E238  E   0.60458  0.14266  0.60458
E239  E   0.60458  0.39542  0.14266
E240  E   0.60458  0.39542  0.85734
E241  E   0.60458  0.60458  0.14266
E242  E   0.60458  0.60458  0.85734
E243  E   0.60458  0.85734  0.39542
E244  E   0.60458  0.85734  0.60458
E245  E   0.64266  0.00000  0.14790
E246  E   0.64266  0.00000  0.85210
E247  E   0.64266  0.10458  0.10458
E248  E   0.64266  0.10458  0.89542
E249  E   0.64266  0.14790  0.00000
E250  E   0.64266  0.85210  0.00000
E251  E   0.64266  0.89542  0.10458
E252  E   0.64266  0.89542  0.89542
E253  E   0.64280  0.06126  0.20916
E254  E   0.64280  0.06126  0.79084
E255  E   0.64280  0.20916  0.06126
E256  E   0.64280  0.20916  0.93874
E257  E   0.64280  0.79084  0.06126
E258  E   0.64280  0.79084  0.93874
E259  E   0.64280  0.93874  0.20916
E260  E   0.64280  0.93874  0.79084
E261  E   0.64294  0.00000  0.27042
E262  E   0.64294  0.00000  0.72958
E263  E   0.64294  0.27042  0.00000
E264  E   0.64294  0.72958  0.00000
E265  E   0.64790  0.14266  0.50000
E266  E   0.64790  0.50000  0.14266
E267  E   0.64790  0.50000  0.85734
E268  E   0.64790  0.85734  0.50000
E269  E   0.68626  0.06126  0.31374
E270  E   0.68626  0.06126  0.68626
E271  E   0.68626  0.31374  0.06126
E272  E   0.68626  0.31374  0.93874
E273  E   0.68626  0.68626  0.06126
E274  E   0.68626  0.68626  0.93874
E275  E   0.68626  0.93874  0.31374
E276  E   0.68626  0.93874  0.68626
E277  E   0.70916  0.14280  0.43874
E278  E   0.70916  0.14280  0.56126
E279  E   0.70916  0.43874  0.14280
E280  E   0.70916  0.43874  0.85720
E281  E   0.70916  0.56126  0.14280
E282  E   0.70916  0.56126  0.85720
E283  E   0.70916  0.85720  0.43874
E284  E   0.70916  0.85720  0.56126
E285  E   0.72958  0.00000  0.35706
E286  E   0.72958  0.00000  0.64294
E287  E   0.72958  0.35706  0.00000
E288  E   0.72958  0.64294  0.00000
E289  E   0.75000  0.10210  0.39790
E290  E   0.75000  0.10210  0.60210
E291  E   0.75000  0.10210  0.39790
E292  E   0.75000  0.10210  0.60210
E293  E   0.75000  0.39790  0.10210
E294  E   0.75000  0.39790  0.89790
E295  E   0.75000  0.39790  0.10210
E296  E   0.75000  0.39790  0.89790
E297  E   0.75000  0.60210  0.10210
E298  E   0.75000  0.60210  0.89790
E299  E   0.75000  0.60210  0.10210
E300  E   0.75000  0.60210  0.89790
E301  E   0.75000  0.89790  0.39790
E302  E   0.75000  0.89790  0.60210
E303  E   0.75000  0.89790  0.39790
E304  E   0.75000  0.89790  0.60210
E305  E   0.77042  0.14294  0.50000
E306  E   0.77042  0.50000  0.14294
E307  E   0.77042  0.50000  0.85706
E308  E   0.77042  0.85706  0.50000
E309  E   0.79084  0.06126  0.35720
E310  E   0.79084  0.06126  0.64280
E311  E   0.79084  0.35720  0.06126
E312  E   0.79084  0.35720  0.93874
E313  E   0.79084  0.64280  0.06126
E314  E   0.79084  0.64280  0.93874
E315  E   0.79084  0.93874  0.35720
E316  E   0.79084  0.93874  0.64280
E317  E   0.81374  0.18626  0.43874
E318  E   0.81374  0.18626  0.56126
E319  E   0.81374  0.43874  0.18626
E320  E   0.81374  0.43874  0.81374
E321  E   0.81374  0.56126  0.18626
E322  E   0.81374  0.56126  0.81374
E323  E   0.81374  0.81374  0.43874
E324  E   0.81374  0.81374  0.56126
E325  E   0.85210  0.00000  0.35734
E326  E   0.85210  0.00000  0.64266
E327  E   0.85210  0.35734  0.00000
E328  E   0.85210  0.64266  0.00000
E329  E   0.85706  0.22958  0.50000
E330  E   0.85706  0.50000  0.22958
E331  E   0.85706  0.50000  0.77042
E332  E   0.85706  0.77042  0.50000
E333  E   0.85720  0.29084  0.43874
E334  E   0.85720  0.29084  0.56126
E335  E   0.85720  0.43874  0.29084
E336  E   0.85720  0.43874  0.70916
E337  E   0.85720  0.56126  0.29084
E338  E   0.85720  0.56126  0.70916
E339  E   0.85720  0.70916  0.43874
E340  E   0.85720  0.70916  0.56126
E341  E   0.85734  0.35210  0.50000
E342  E   0.85734  0.39542  0.39542
E343  E   0.85734  0.39542  0.60458
E344  E   0.85734  0.50000  0.35210
E345  E   0.85734  0.50000  0.64790
E346  E   0.85734  0.60458  0.39542
E347  E   0.85734  0.60458  0.60458
E348  E   0.85734  0.64790  0.50000
E349  E   0.89542  0.10458  0.35734
E350  E   0.89542  0.10458  0.64266
E351  E   0.89542  0.35734  0.10458
E352  E   0.89542  0.35734  0.89542
E353  E   0.89542  0.64266  0.10458
E354  E   0.89542  0.64266  0.89542
E355  E   0.89542  0.89542  0.35734
E356  E   0.89542  0.89542  0.64266
E357  E   0.89790  0.25000  0.39790
E358  E   0.89790  0.25000  0.60210
E359  E   0.89790  0.39790  0.25000
E360  E   0.89790  0.39790  0.75000
E361  E   0.89790  0.60210  0.25000
E362  E   0.89790  0.60210  0.75000
E363  E   0.89790  0.75000  0.39790
E364  E   0.89790  0.75000  0.60210
E365  E   0.89790  0.25000  0.39790
E366  E   0.89790  0.25000  0.60210
E367  E   0.89790  0.39790  0.25000
E368  E   0.89790  0.39790  0.75000
E369  E   0.89790  0.60210  0.25000
E370  E   0.89790  0.60210  0.75000
E371  E   0.89790  0.75000  0.39790
E372  E   0.89790  0.75000  0.60210
E373  E   0.93874  0.20916  0.35720
E374  E   0.93874  0.20916  0.64280
E375  E   0.93874  0.31374  0.31374
E376  E   0.93874  0.31374  0.68626
E377  E   0.93874  0.35720  0.20916
E378  E   0.93874  0.35720  0.79084
E379  E   0.93874  0.64280  0.20916
E380  E   0.93874  0.64280  0.79084
E381  E   0.93874  0.68626  0.31374
E382  E   0.93874  0.68626  0.68626
E383  E   0.93874  0.79084  0.35720
E384  E   0.93874  0.79084  0.64280
loop_
