data_fuj_Pn-3m:2  hall_number: 522, V_con: 4, EC_con: 4
_audit_creation_date              2025-03-06
_audit_creation_method            'MOFbuilder_1.0'
_symmetry_space_group_name_H-M    'P1'
_symmetry_Int_Tables_number       1
_symmetry_cell_setting            triclinic
loop_
_symmetry_equiv_pos_as_xyz
  x,y,z
_cell_length_a                    56.032700000000006
_cell_length_b                    56.032700000000006
_cell_length_c                    56.032700000000006
_cell_angle_alpha                 90.0
_cell_angle_beta                  90.0
_cell_angle_gamma                 90.0
loop_
_atom_site_label
_atom_site_type_symbol
_atom_site_fract_x
_atom_site_fract_y
_atom_site_fract_z
V1    V   0.00000  0.12620  0.87380
V2    V   0.00000  0.12620  0.87380
V3    V   0.00000  0.37380  0.62620
V4    V   0.00000  0.62620  0.37380
V5    V   0.00000  0.87380  0.12620
V6    V   0.00000  0.87380  0.12620
V7    V   0.12620  0.00000  0.87380
V8    V   0.12620  0.50000  0.62620
V9    V   0.12620  0.62620  0.50000
V10   V   0.12620  0.87380  0.00000
V11   V   0.12620  0.00000  0.87380
V12   V   0.12620  0.50000  0.62620
V13   V   0.12620  0.62620  0.50000
V14   V   0.12620  0.87380  0.00000
V15   V   0.37380  0.00000  0.62620
V16   V   0.37380  0.50000  0.87380
V17   V   0.37380  0.62620  0.00000
V18   V   0.37380  0.87380  0.50000
V19   V   0.50000  0.12620  0.62620
V20   V   0.50000  0.12620  0.62620
V21   V   0.50000  0.37380  0.87380
V22   V   0.50000  0.62620  0.12620
V23   V   0.50000  0.62620  0.12620
V24   V   0.50000  0.87380  0.37380
V25   V   0.62620  0.00000  0.37380
V26   V   0.62620  0.12620  0.50000
V27   V   0.62620  0.12620  0.50000
V28   V   0.62620  0.37380  0.00000
V29   V   0.62620  0.50000  0.12620
V30   V   0.62620  0.50000  0.12620
V31   V   0.87380  0.00000  0.12620
V32   V   0.87380  0.00000  0.12620
V33   V   0.87380  0.12620  0.00000
V34   V   0.87380  0.12620  0.00000
V35   V   0.87380  0.37380  0.50000
V36   V   0.87380  0.50000  0.37380
EC1    EC   0.12380  0.25000  0.66077
EC2    EC   0.12380  0.25000  0.83923
EC3    EC   0.12380  0.66077  0.25000
EC4    EC   0.12380  0.83923  0.25000
EC5    EC   0.16077  0.62380  0.75000
EC6    EC   0.16077  0.75000  0.62380
EC7    EC   0.16077  0.75000  0.87620
EC8    EC   0.16077  0.87620  0.75000
EC9    EC   0.25000  0.12380  0.66077
EC10   EC   0.25000  0.12380  0.83923
EC11   EC   0.25000  0.37620  0.66077
EC12   EC   0.25000  0.37620  0.83923
EC13   EC   0.25000  0.66077  0.12380
EC14   EC   0.25000  0.66077  0.37620
EC15   EC   0.25000  0.83923  0.12380
EC16   EC   0.25000  0.83923  0.37620
EC17   EC   0.33923  0.62380  0.75000
EC18   EC   0.33923  0.75000  0.62380
EC19   EC   0.33923  0.75000  0.87620
EC20   EC   0.33923  0.87620  0.75000
EC21   EC   0.37620  0.25000  0.66077
EC22   EC   0.37620  0.25000  0.83923
EC23   EC   0.37620  0.66077  0.25000
EC24   EC   0.37620  0.83923  0.25000
EC25   EC   0.62380  0.16077  0.75000
EC26   EC   0.62380  0.33923  0.75000
EC27   EC   0.62380  0.75000  0.16077
EC28   EC   0.62380  0.75000  0.33923
EC29   EC   0.66077  0.12380  0.25000
EC30   EC   0.66077  0.25000  0.12380
EC31   EC   0.66077  0.25000  0.37620
EC32   EC   0.66077  0.37620  0.25000
EC33   EC   0.75000  0.16077  0.62380
EC34   EC   0.75000  0.16077  0.87620
EC35   EC   0.75000  0.33923  0.62380
EC36   EC   0.75000  0.33923  0.87620
EC37   EC   0.75000  0.62380  0.16077
EC38   EC   0.75000  0.62380  0.33923
EC39   EC   0.75000  0.87620  0.16077
EC40   EC   0.75000  0.87620  0.33923
EC41   EC   0.83923  0.12380  0.25000
EC42   EC   0.83923  0.25000  0.12380
EC43   EC   0.83923  0.25000  0.37620
EC44   EC   0.83923  0.37620  0.25000
EC45   EC   0.87620  0.16077  0.75000
EC46   EC   0.87620  0.33923  0.75000
EC47   EC   0.87620  0.75000  0.16077
EC48   EC   0.87620  0.75000  0.33923
E1    E   0.06190  0.18810  0.85652
E2    E   0.06190  0.31190  0.64348
E3    E   0.06190  0.64348  0.31190
E4    E   0.06190  0.85652  0.18810
E5    E   0.06310  0.06310  0.87380
E6    E   0.06310  0.43690  0.62620
E7    E   0.06310  0.62620  0.43690
E8    E   0.06310  0.87380  0.06310
E9    E   0.06310  0.06310  0.87380
E10   E   0.06310  0.43690  0.62620
E11   E   0.06310  0.62620  0.43690
E12   E   0.06310  0.87380  0.06310
E13   E   0.12380  0.25000  0.75000
E14   E   0.12380  0.75000  0.25000
E15   E   0.12620  0.56310  0.56310
E16   E   0.12620  0.93690  0.93690
E17   E   0.14348  0.56190  0.68810
E18   E   0.14348  0.68810  0.56190
E19   E   0.14348  0.81190  0.93810
E20   E   0.14348  0.93810  0.81190
E21   E   0.16077  0.68690  0.68690
E22   E   0.16077  0.68690  0.81310
E23   E   0.16077  0.81310  0.68690
E24   E   0.16077  0.81310  0.81310
E25   E   0.18690  0.18690  0.66077
E26   E   0.18690  0.18690  0.83923
E27   E   0.18690  0.31310  0.66077
E28   E   0.18690  0.31310  0.83923
E29   E   0.18690  0.66077  0.18690
E30   E   0.18690  0.66077  0.31310
E31   E   0.18690  0.83923  0.18690
E32   E   0.18690  0.83923  0.31310
E33   E   0.18810  0.06190  0.85652
E34   E   0.18810  0.43810  0.64348
E35   E   0.18810  0.64348  0.43810
E36   E   0.18810  0.85652  0.06190
E37   E   0.25000  0.12380  0.75000
E38   E   0.25000  0.37620  0.75000
E39   E   0.25000  0.62380  0.75000
E40   E   0.25000  0.75000  0.12380
E41   E   0.25000  0.75000  0.37620
E42   E   0.25000  0.75000  0.62380
E43   E   0.25000  0.75000  0.87620
E44   E   0.25000  0.87620  0.75000
E45   E   0.31190  0.06190  0.64348
E46   E   0.31190  0.43810  0.85652
E47   E   0.31190  0.64348  0.06190
E48   E   0.31190  0.85652  0.43810
E49   E   0.31310  0.18690  0.66077
E50   E   0.31310  0.18690  0.83923
E51   E   0.31310  0.31310  0.66077
E52   E   0.31310  0.31310  0.83923
E53   E   0.31310  0.66077  0.18690
E54   E   0.31310  0.66077  0.31310
E55   E   0.31310  0.83923  0.18690
E56   E   0.31310  0.83923  0.31310
E57   E   0.33923  0.68690  0.68690
E58   E   0.33923  0.68690  0.81310
E59   E   0.33923  0.81310  0.68690
E60   E   0.33923  0.81310  0.81310
E61   E   0.35652  0.56190  0.81190
E62   E   0.35652  0.68810  0.93810
E63   E   0.35652  0.81190  0.56190
E64   E   0.35652  0.93810  0.68810
E65   E   0.37380  0.56310  0.93690
E66   E   0.37380  0.93690  0.56310
E67   E   0.37620  0.25000  0.75000
E68   E   0.37620  0.75000  0.25000
E69   E   0.43690  0.06310  0.62620
E70   E   0.43690  0.43690  0.87380
E71   E   0.43690  0.62620  0.06310
E72   E   0.43690  0.87380  0.43690
E73   E   0.43690  0.06310  0.62620
E74   E   0.43690  0.43690  0.87380
E75   E   0.43690  0.62620  0.06310
E76   E   0.43690  0.87380  0.43690
E77   E   0.43810  0.18810  0.64348
E78   E   0.43810  0.31190  0.85652
E79   E   0.43810  0.64348  0.18810
E80   E   0.43810  0.85652  0.31190
E81   E   0.56190  0.14348  0.68810
E82   E   0.56190  0.35652  0.81190
E83   E   0.56190  0.68810  0.14348
E84   E   0.56190  0.81190  0.35652
E85   E   0.56310  0.12620  0.56310
E86   E   0.56310  0.37380  0.93690
E87   E   0.56310  0.56310  0.12620
E88   E   0.56310  0.93690  0.37380
E89   E   0.62380  0.25000  0.75000
E90   E   0.62380  0.75000  0.25000
E91   E   0.62620  0.06310  0.43690
E92   E   0.62620  0.06310  0.43690
E93   E   0.62620  0.43690  0.06310
E94   E   0.62620  0.43690  0.06310
E95   E   0.64348  0.06190  0.31190
E96   E   0.64348  0.18810  0.43810
E97   E   0.64348  0.31190  0.06190
E98   E   0.64348  0.43810  0.18810
E99   E   0.66077  0.18690  0.18690
E100  E   0.66077  0.18690  0.31310
E101  E   0.66077  0.31310  0.18690
E102  E   0.66077  0.31310  0.31310
E103  E   0.68690  0.16077  0.68690
E104  E   0.68690  0.16077  0.81310
E105  E   0.68690  0.33923  0.68690
E106  E   0.68690  0.33923  0.81310
E107  E   0.68690  0.68690  0.16077
E108  E   0.68690  0.68690  0.33923
E109  E   0.68690  0.81310  0.16077
E110  E   0.68690  0.81310  0.33923
E111  E   0.68810  0.14348  0.56190
E112  E   0.68810  0.35652  0.93810
E113  E   0.68810  0.56190  0.14348
E114  E   0.68810  0.93810  0.35652
E115  E   0.75000  0.12380  0.25000
E116  E   0.75000  0.25000  0.12380
E117  E   0.75000  0.25000  0.37620
E118  E   0.75000  0.25000  0.62380
E119  E   0.75000  0.25000  0.87620
E120  E   0.75000  0.37620  0.25000
E121  E   0.75000  0.62380  0.25000
E122  E   0.75000  0.87620  0.25000
E123  E   0.81190  0.14348  0.93810
E124  E   0.81190  0.35652  0.56190
E125  E   0.81190  0.56190  0.35652
E126  E   0.81190  0.93810  0.14348
E127  E   0.81310  0.16077  0.68690
E128  E   0.81310  0.16077  0.81310
E129  E   0.81310  0.33923  0.68690
E130  E   0.81310  0.33923  0.81310
E131  E   0.81310  0.68690  0.16077
E132  E   0.81310  0.68690  0.33923
E133  E   0.81310  0.81310  0.16077
E134  E   0.81310  0.81310  0.33923
E135  E   0.83923  0.18690  0.18690
E136  E   0.83923  0.18690  0.31310
E137  E   0.83923  0.31310  0.18690
E138  E   0.83923  0.31310  0.31310
E139  E   0.85652  0.06190  0.18810
E140  E   0.85652  0.18810  0.06190
E141  E   0.85652  0.31190  0.43810
E142  E   0.85652  0.43810  0.31190
E143  E   0.87380  0.06310  0.06310
E144  E   0.87380  0.06310  0.06310
E145  E   0.87380  0.43690  0.43690
E146  E   0.87380  0.43690  0.43690
E147  E   0.87620  0.25000  0.75000
E148  E   0.87620  0.75000  0.25000
E149  E   0.93690  0.12620  0.93690
E150  E   0.93690  0.37380  0.56310
E151  E   0.93690  0.56310  0.37380
E152  E   0.93690  0.93690  0.12620
E153  E   0.93810  0.14348  0.81190
E154  E   0.93810  0.35652  0.68810
E155  E   0.93810  0.68810  0.35652
E156  E   0.93810  0.81190  0.14348
loop_
