data_fum_P-31m  hall_number: 454, V_con: 4, EC_con: 4
_audit_creation_date              2025-03-06
_audit_creation_method            'MOFbuilder_1.0'
_symmetry_space_group_name_H-M    'P1'
_symmetry_Int_Tables_number       1
_symmetry_cell_setting            triclinic
loop_
_symmetry_equiv_pos_as_xyz
  x,y,z
_cell_length_a                    45.886500000000005
_cell_length_b                    45.886500000000005
_cell_length_c                    30.731299999999997
_cell_angle_alpha                 90.0
_cell_angle_beta                  90.0
_cell_angle_gamma                 120.0
loop_
_atom_site_label
_atom_site_type_symbol
_atom_site_fract_x
_atom_site_fract_y
_atom_site_fract_z
V1    V   0.12583  0.45916  0.54970
V2    V   0.12583  0.66667  0.45030
V3    V   0.33333  0.45916  0.45030
V4    V   0.33333  0.87417  0.54970
V5    V   0.45916  0.12583  0.54970
V6    V   0.45916  0.33333  0.45030
V7    V   0.54084  0.66667  0.54970
V8    V   0.54084  0.87417  0.45030
V9    V   0.66667  0.12583  0.45030
V10   V   0.66667  0.54084  0.54970
V11   V   0.87417  0.33333  0.54970
V12   V   0.87417  0.54084  0.45030
EC1    EC   0.19206  0.56667  0.84332
EC2    EC   0.19206  0.62539  0.15668
EC3    EC   0.37461  0.56667  0.15668
EC4    EC   0.37461  0.80794  0.84332
EC5    EC   0.43333  0.62539  0.84332
EC6    EC   0.43333  0.80794  0.15668
EC7    EC   0.56667  0.19206  0.84332
EC8    EC   0.56667  0.37461  0.15668
EC9    EC   0.62539  0.19206  0.15668
EC10   EC   0.62539  0.43333  0.84332
EC11   EC   0.80794  0.37461  0.84332
EC12   EC   0.80794  0.43333  0.15668
E1    E   0.00000  0.39624  0.54970
E2    E   0.00000  0.60376  0.45030
E3    E   0.12582  0.56291  0.50000
E4    E   0.15894  0.51291  0.69651
E5    E   0.15894  0.64603  0.30349
E6    E   0.19206  0.59603  0.00000
E7    E   0.19206  0.59603  0.00000
E8    E   0.22958  0.45916  0.50000
E9    E   0.22958  0.77042  0.50000
E10   E   0.28333  0.59603  0.15668
E11   E   0.28333  0.68730  0.84332
E12   E   0.31270  0.59603  0.84332
E13   E   0.31270  0.71667  0.15668
E14   E   0.35397  0.51291  0.30349
E15   E   0.35397  0.84106  0.69651
E16   E   0.39624  0.00000  0.54970
E17   E   0.39624  0.39624  0.45030
E18   E   0.40397  0.59603  0.00000
E19   E   0.40397  0.80794  0.00000
E20   E   0.40397  0.59603  0.00000
E21   E   0.40397  0.68730  0.15668
E22   E   0.40397  0.71667  0.84332
E23   E   0.40397  0.80794  0.00000
E24   E   0.43709  0.56291  0.50000
E25   E   0.43709  0.87418  0.50000
E26   E   0.45916  0.22958  0.50000
E27   E   0.48709  0.64603  0.69651
E28   E   0.48709  0.84106  0.30349
E29   E   0.51291  0.15894  0.69651
E30   E   0.51291  0.35397  0.30349
E31   E   0.54084  0.77042  0.50000
E32   E   0.56291  0.12582  0.50000
E33   E   0.56291  0.43709  0.50000
E34   E   0.59603  0.19206  0.00000
E35   E   0.59603  0.28333  0.15668
E36   E   0.59603  0.31270  0.84332
E37   E   0.59603  0.40397  0.00000
E38   E   0.59603  0.19206  0.00000
E39   E   0.59603  0.40397  0.00000
E40   E   0.60376  0.00000  0.45030
E41   E   0.60376  0.60376  0.54970
E42   E   0.64603  0.15894  0.30349
E43   E   0.64603  0.48709  0.69651
E44   E   0.68730  0.28333  0.84332
E45   E   0.68730  0.40397  0.15668
E46   E   0.71667  0.31270  0.15668
E47   E   0.71667  0.40397  0.84332
E48   E   0.77042  0.22958  0.50000
E49   E   0.77042  0.54084  0.50000
E50   E   0.80794  0.40397  0.00000
E51   E   0.80794  0.40397  0.00000
E52   E   0.84106  0.35397  0.69651
E53   E   0.84106  0.48709  0.30349
E54   E   0.87418  0.43709  0.50000
loop_
