data_fun_I4/mmm  hall_number: 424, V_con: 4, EC_con: 4
_audit_creation_date              2025-03-06
_audit_creation_method            'MOFbuilder_1.0'
_symmetry_space_group_name_H-M    'P1'
_symmetry_Int_Tables_number       1
_symmetry_cell_setting            triclinic
loop_
_symmetry_equiv_pos_as_xyz
  x,y,z
_cell_length_a                    48.262299999999996
_cell_length_b                    48.262299999999996
_cell_length_c                    48.328100000000006
_cell_angle_alpha                 90.0
_cell_angle_beta                  90.0
_cell_angle_gamma                 90.0
loop_
_atom_site_label
_atom_site_type_symbol
_atom_site_fract_x
_atom_site_fract_y
_atom_site_fract_z
V1    V   0.10360  0.25011  0.50000
V2    V   0.10360  0.74989  0.50000
V3    V   0.24989  0.39640  0.00000
V4    V   0.24989  0.60360  0.00000
V5    V   0.25011  0.10360  0.50000
V6    V   0.25011  0.89640  0.50000
V7    V   0.39640  0.24989  0.00000
V8    V   0.39640  0.75011  0.00000
V9    V   0.60360  0.24989  0.00000
V10   V   0.60360  0.75011  0.00000
V11   V   0.74989  0.10360  0.50000
V12   V   0.74989  0.89640  0.50000
V13   V   0.75011  0.39640  0.00000
V14   V   0.75011  0.60360  0.00000
V15   V   0.89640  0.25011  0.50000
V16   V   0.89640  0.74989  0.50000
EC1    EC   0.10360  0.39640  0.14654
EC2    EC   0.10360  0.39640  0.85346
EC3    EC   0.10360  0.60360  0.14654
EC4    EC   0.10360  0.60360  0.85346
EC5    EC   0.10360  0.39640  0.35346
EC6    EC   0.10360  0.39640  0.64654
EC7    EC   0.10360  0.60360  0.35346
EC8    EC   0.10360  0.60360  0.64654
EC9    EC   0.39640  0.10360  0.14654
EC10   EC   0.39640  0.10360  0.85346
EC11   EC   0.39640  0.10360  0.35346
EC12   EC   0.39640  0.10360  0.64654
EC13   EC   0.39640  0.89640  0.14654
EC14   EC   0.39640  0.89640  0.35346
EC15   EC   0.39640  0.89640  0.64654
EC16   EC   0.39640  0.89640  0.85346
EC17   EC   0.60360  0.10360  0.14654
EC18   EC   0.60360  0.10360  0.85346
EC19   EC   0.60360  0.10360  0.35346
EC20   EC   0.60360  0.10360  0.64654
EC21   EC   0.60360  0.89640  0.14654
EC22   EC   0.60360  0.89640  0.35346
EC23   EC   0.60360  0.89640  0.64654
EC24   EC   0.60360  0.89640  0.85346
EC25   EC   0.89640  0.39640  0.14654
EC26   EC   0.89640  0.39640  0.35346
EC27   EC   0.89640  0.39640  0.64654
EC28   EC   0.89640  0.39640  0.85346
EC29   EC   0.89640  0.60360  0.14654
EC30   EC   0.89640  0.60360  0.35346
EC31   EC   0.89640  0.60360  0.64654
EC32   EC   0.89640  0.60360  0.85346
E1    E   0.00000  0.25011  0.50000
E2    E   0.00000  0.39640  0.14654
E3    E   0.00000  0.39640  0.35346
E4    E   0.00000  0.39640  0.64654
E5    E   0.00000  0.39640  0.85346
E6    E   0.00000  0.60360  0.14654
E7    E   0.00000  0.60360  0.35346
E8    E   0.00000  0.60360  0.64654
E9    E   0.00000  0.60360  0.85346
E10   E   0.00000  0.74989  0.50000
E11   E   0.10360  0.39640  0.25000
E12   E   0.10360  0.39640  0.75000
E13   E   0.10360  0.50000  0.14654
E14   E   0.10360  0.50000  0.85346
E15   E   0.10360  0.60360  0.25000
E16   E   0.10360  0.60360  0.75000
E17   E   0.10360  0.32326  0.42673
E18   E   0.10360  0.32326  0.57327
E19   E   0.10360  0.39640  0.25000
E20   E   0.10360  0.39640  0.75000
E21   E   0.10360  0.50000  0.35346
E22   E   0.10360  0.50000  0.64654
E23   E   0.10360  0.60360  0.25000
E24   E   0.10360  0.60360  0.75000
E25   E   0.10360  0.67674  0.42673
E26   E   0.10360  0.67674  0.57327
E27   E   0.17674  0.39640  0.07327
E28   E   0.17674  0.39640  0.92673
E29   E   0.17674  0.60360  0.07327
E30   E   0.17674  0.60360  0.92673
E31   E   0.17686  0.17686  0.50000
E32   E   0.17686  0.82314  0.50000
E33   E   0.24989  0.50000  0.00000
E34   E   0.25011  0.00000  0.50000
E35   E   0.32314  0.32314  0.00000
E36   E   0.32314  0.67686  0.00000
E37   E   0.32326  0.10360  0.42673
E38   E   0.32326  0.10360  0.57327
E39   E   0.32326  0.89640  0.42673
E40   E   0.32326  0.89640  0.57327
E41   E   0.39640  0.00000  0.14654
E42   E   0.39640  0.00000  0.35346
E43   E   0.39640  0.00000  0.64654
E44   E   0.39640  0.00000  0.85346
E45   E   0.39640  0.10360  0.25000
E46   E   0.39640  0.10360  0.75000
E47   E   0.39640  0.10360  0.25000
E48   E   0.39640  0.10360  0.75000
E49   E   0.39640  0.17674  0.07327
E50   E   0.39640  0.17674  0.92673
E51   E   0.39640  0.82326  0.07327
E52   E   0.39640  0.82326  0.92673
E53   E   0.39640  0.89640  0.25000
E54   E   0.39640  0.89640  0.75000
E55   E   0.50000  0.10360  0.14654
E56   E   0.50000  0.10360  0.85346
E57   E   0.50000  0.10360  0.35346
E58   E   0.50000  0.10360  0.64654
E59   E   0.50000  0.24989  0.00000
E60   E   0.50000  0.75011  0.00000
E61   E   0.50000  0.89640  0.14654
E62   E   0.50000  0.89640  0.35346
E63   E   0.50000  0.89640  0.64654
E64   E   0.50000  0.89640  0.85346
E65   E   0.60360  0.00000  0.14654
E66   E   0.60360  0.00000  0.35346
E67   E   0.60360  0.00000  0.64654
E68   E   0.60360  0.00000  0.85346
E69   E   0.60360  0.10360  0.25000
E70   E   0.60360  0.10360  0.75000
E71   E   0.60360  0.10360  0.25000
E72   E   0.60360  0.10360  0.75000
E73   E   0.60360  0.17674  0.07327
E74   E   0.60360  0.17674  0.92673
E75   E   0.60360  0.82326  0.07327
E76   E   0.60360  0.82326  0.92673
E77   E   0.60360  0.89640  0.25000
E78   E   0.60360  0.89640  0.75000
E79   E   0.67674  0.10360  0.42673
E80   E   0.67674  0.10360  0.57327
E81   E   0.67674  0.89640  0.42673
E82   E   0.67674  0.89640  0.57327
E83   E   0.67686  0.32314  0.00000
E84   E   0.67686  0.67686  0.00000
E85   E   0.74989  0.00000  0.50000
E86   E   0.75011  0.50000  0.00000
E87   E   0.82314  0.17686  0.50000
E88   E   0.82314  0.82314  0.50000
E89   E   0.82326  0.39640  0.07327
E90   E   0.82326  0.39640  0.92673
E91   E   0.82326  0.60360  0.07327
E92   E   0.82326  0.60360  0.92673
E93   E   0.89640  0.32326  0.42673
E94   E   0.89640  0.32326  0.57327
E95   E   0.89640  0.39640  0.25000
E96   E   0.89640  0.39640  0.75000
E97   E   0.89640  0.50000  0.14654
E98   E   0.89640  0.50000  0.35346
E99   E   0.89640  0.50000  0.64654
E100  E   0.89640  0.50000  0.85346
E101  E   0.89640  0.60360  0.25000
E102  E   0.89640  0.60360  0.75000
E103  E   0.89640  0.67674  0.42673
E104  E   0.89640  0.67674  0.57327
loop_
