data_fvd_I4/mcm  hall_number: 425, V_con: 4, EC_con: 4
_audit_creation_date              2025-03-06
_audit_creation_method            'MOFbuilder_1.0'
_symmetry_space_group_name_H-M    'P1'
_symmetry_Int_Tables_number       1
_symmetry_cell_setting            triclinic
loop_
_symmetry_equiv_pos_as_xyz
  x,y,z
_cell_length_a                    46.408199999999994
_cell_length_b                    46.408199999999994
_cell_length_c                    60.5161
_cell_angle_alpha                 90.0
_cell_angle_beta                  90.0
_cell_angle_gamma                 90.0
loop_
_atom_site_label
_atom_site_type_symbol
_atom_site_fract_x
_atom_site_fract_y
_atom_site_fract_z
V1    V   0.10182  0.24582  0.22299
V2    V   0.10182  0.24582  0.77701
V3    V   0.10182  0.75418  0.27701
V4    V   0.10182  0.75418  0.72299
V5    V   0.24582  0.10182  0.27701
V6    V   0.24582  0.10182  0.72299
V7    V   0.24582  0.89818  0.22299
V8    V   0.24582  0.89818  0.77701
V9    V   0.25418  0.39818  0.22299
V10   V   0.25418  0.39818  0.77701
V11   V   0.25418  0.60182  0.27701
V12   V   0.25418  0.60182  0.72299
V13   V   0.39818  0.25418  0.27701
V14   V   0.39818  0.25418  0.72299
V15   V   0.39818  0.74582  0.22299
V16   V   0.39818  0.74582  0.77701
V17   V   0.60182  0.25418  0.22299
V18   V   0.60182  0.25418  0.77701
V19   V   0.60182  0.74582  0.27701
V20   V   0.60182  0.74582  0.72299
V21   V   0.74582  0.39818  0.27701
V22   V   0.74582  0.39818  0.72299
V23   V   0.74582  0.60182  0.22299
V24   V   0.74582  0.60182  0.77701
V25   V   0.75418  0.10182  0.22299
V26   V   0.75418  0.10182  0.77701
V27   V   0.75418  0.89818  0.27701
V28   V   0.75418  0.89818  0.72299
V29   V   0.89818  0.24582  0.27701
V30   V   0.89818  0.24582  0.72299
V31   V   0.89818  0.75418  0.22299
V32   V   0.89818  0.75418  0.77701
EC1    EC   0.05759  0.14107  0.08262
EC2    EC   0.05759  0.14107  0.91738
EC3    EC   0.05759  0.85893  0.41738
EC4    EC   0.05759  0.85893  0.58262
EC5    EC   0.14107  0.05759  0.41738
EC6    EC   0.14107  0.05759  0.58262
EC7    EC   0.14107  0.94241  0.08262
EC8    EC   0.14107  0.94241  0.91738
EC9    EC   0.35893  0.44241  0.08262
EC10   EC   0.35893  0.44241  0.91738
EC11   EC   0.35893  0.55759  0.41738
EC12   EC   0.35893  0.55759  0.58262
EC13   EC   0.44241  0.35893  0.41738
EC14   EC   0.44241  0.35893  0.58262
EC15   EC   0.44241  0.64107  0.08262
EC16   EC   0.44241  0.64107  0.91738
EC17   EC   0.55759  0.35893  0.08262
EC18   EC   0.55759  0.35893  0.91738
EC19   EC   0.55759  0.64107  0.41738
EC20   EC   0.55759  0.64107  0.58262
EC21   EC   0.64107  0.44241  0.41738
EC22   EC   0.64107  0.44241  0.58262
EC23   EC   0.64107  0.55759  0.08262
EC24   EC   0.64107  0.55759  0.91738
EC25   EC   0.85893  0.05759  0.08262
EC26   EC   0.85893  0.05759  0.91738
EC27   EC   0.85893  0.94241  0.41738
EC28   EC   0.85893  0.94241  0.58262
EC29   EC   0.94241  0.14107  0.41738
EC30   EC   0.94241  0.14107  0.58262
EC31   EC   0.94241  0.85893  0.08262
EC32   EC   0.94241  0.85893  0.91738
E1    E   0.00000  0.24582  0.25000
E2    E   0.00000  0.24582  0.75000
E3    E   0.00000  0.75418  0.25000
E4    E   0.00000  0.75418  0.75000
E5    E   0.04174  0.09933  0.41738
E6    E   0.04174  0.09933  0.58262
E7    E   0.04174  0.90067  0.08262
E8    E   0.04174  0.90067  0.91738
E9    E   0.05759  0.14107  0.00000
E10   E   0.05759  0.85893  0.50000
E11   E   0.07970  0.19344  0.15281
E12   E   0.07970  0.19344  0.84719
E13   E   0.07970  0.80656  0.34719
E14   E   0.07970  0.80656  0.65281
E15   E   0.09933  0.04174  0.08262
E16   E   0.09933  0.04174  0.91738
E17   E   0.09933  0.95826  0.41738
E18   E   0.09933  0.95826  0.58262
E19   E   0.14107  0.05759  0.50000
E20   E   0.14107  0.94241  0.00000
E21   E   0.17382  0.17382  0.25000
E22   E   0.17382  0.17382  0.75000
E23   E   0.17382  0.82618  0.25000
E24   E   0.17382  0.82618  0.75000
E25   E   0.17800  0.32200  0.22299
E26   E   0.17800  0.32200  0.77701
E27   E   0.17800  0.67800  0.27701
E28   E   0.17800  0.67800  0.72299
E29   E   0.19344  0.07970  0.34719
E30   E   0.19344  0.07970  0.65281
E31   E   0.19344  0.92030  0.15281
E32   E   0.19344  0.92030  0.84719
E33   E   0.24582  0.00000  0.25000
E34   E   0.24582  0.00000  0.75000
E35   E   0.25418  0.50000  0.25000
E36   E   0.25418  0.50000  0.75000
E37   E   0.30656  0.42030  0.15281
E38   E   0.30656  0.42030  0.84719
E39   E   0.30656  0.57970  0.34719
E40   E   0.30656  0.57970  0.65281
E41   E   0.32200  0.17800  0.27701
E42   E   0.32200  0.17800  0.72299
E43   E   0.32200  0.82200  0.22299
E44   E   0.32200  0.82200  0.77701
E45   E   0.32618  0.32618  0.25000
E46   E   0.32618  0.32618  0.75000
E47   E   0.32618  0.67382  0.25000
E48   E   0.32618  0.67382  0.75000
E49   E   0.35893  0.44241  0.00000
E50   E   0.35893  0.55759  0.50000
E51   E   0.40067  0.45826  0.41738
E52   E   0.40067  0.45826  0.58262
E53   E   0.40067  0.54174  0.08262
E54   E   0.40067  0.54174  0.91738
E55   E   0.42030  0.30656  0.34719
E56   E   0.42030  0.30656  0.65281
E57   E   0.42030  0.69344  0.15281
E58   E   0.42030  0.69344  0.84719
E59   E   0.44241  0.35893  0.50000
E60   E   0.44241  0.64107  0.00000
E61   E   0.45826  0.40067  0.08262
E62   E   0.45826  0.40067  0.91738
E63   E   0.45826  0.59933  0.41738
E64   E   0.45826  0.59933  0.58262
E65   E   0.50000  0.25418  0.25000
E66   E   0.50000  0.25418  0.75000
E67   E   0.50000  0.74582  0.25000
E68   E   0.50000  0.74582  0.75000
E69   E   0.54174  0.40067  0.41738
E70   E   0.54174  0.40067  0.58262
E71   E   0.54174  0.59933  0.08262
E72   E   0.54174  0.59933  0.91738
E73   E   0.55759  0.35893  0.00000
E74   E   0.55759  0.64107  0.50000
E75   E   0.57970  0.30656  0.15281
E76   E   0.57970  0.30656  0.84719
E77   E   0.57970  0.69344  0.34719
E78   E   0.57970  0.69344  0.65281
E79   E   0.59933  0.45826  0.08262
E80   E   0.59933  0.45826  0.91738
E81   E   0.59933  0.54174  0.41738
E82   E   0.59933  0.54174  0.58262
E83   E   0.64107  0.44241  0.50000
E84   E   0.64107  0.55759  0.00000
E85   E   0.67382  0.32618  0.25000
E86   E   0.67382  0.32618  0.75000
E87   E   0.67382  0.67382  0.25000
E88   E   0.67382  0.67382  0.75000
E89   E   0.67800  0.17800  0.22299
E90   E   0.67800  0.17800  0.77701
E91   E   0.67800  0.82200  0.27701
E92   E   0.67800  0.82200  0.72299
E93   E   0.69344  0.42030  0.34719
E94   E   0.69344  0.42030  0.65281
E95   E   0.69344  0.57970  0.15281
E96   E   0.69344  0.57970  0.84719
E97   E   0.74582  0.50000  0.25000
E98   E   0.74582  0.50000  0.75000
E99   E   0.75418  0.00000  0.25000
E100  E   0.75418  0.00000  0.75000
E101  E   0.80656  0.07970  0.15281
E102  E   0.80656  0.07970  0.84719
E103  E   0.80656  0.92030  0.34719
E104  E   0.80656  0.92030  0.65281
E105  E   0.82200  0.32200  0.27701
E106  E   0.82200  0.32200  0.72299
E107  E   0.82200  0.67800  0.22299
E108  E   0.82200  0.67800  0.77701
E109  E   0.82618  0.17382  0.25000
E110  E   0.82618  0.17382  0.75000
E111  E   0.82618  0.82618  0.25000
E112  E   0.82618  0.82618  0.75000
E113  E   0.85893  0.05759  0.00000
E114  E   0.85893  0.94241  0.50000
E115  E   0.90067  0.04174  0.41738
E116  E   0.90067  0.04174  0.58262
E117  E   0.90067  0.95826  0.08262
E118  E   0.90067  0.95826  0.91738
E119  E   0.92030  0.19344  0.34719
E120  E   0.92030  0.19344  0.65281
E121  E   0.92030  0.80656  0.15281
E122  E   0.92030  0.80656  0.84719
E123  E   0.94241  0.14107  0.50000
E124  E   0.94241  0.85893  0.00000
E125  E   0.95826  0.09933  0.08262
E126  E   0.95826  0.09933  0.91738
E127  E   0.95826  0.90067  0.41738
E128  E   0.95826  0.90067  0.58262
loop_
