data_fvn_P-31m  hall_number: 454, V_con: 4, EC_con: 4
_audit_creation_date              2025-03-06
_audit_creation_method            'MOFbuilder_1.0'
_symmetry_space_group_name_H-M    'P1'
_symmetry_Int_Tables_number       1
_symmetry_cell_setting            triclinic
loop_
_symmetry_equiv_pos_as_xyz
  x,y,z
_cell_length_a                    44.308899999999994
_cell_length_b                    44.308899999999994
_cell_length_c                    21.7678
_cell_angle_alpha                 90.0
_cell_angle_beta                  90.0
_cell_angle_gamma                 120.0
loop_
_atom_site_label
_atom_site_type_symbol
_atom_site_fract_x
_atom_site_fract_y
_atom_site_fract_z
V1    V   0.18287  0.59143  0.00000
V2    V   0.18287  0.59144  0.00000
V3    V   0.40856  0.59143  0.00000
V4    V   0.40856  0.81713  0.00000
V5    V   0.40857  0.59144  0.00000
V6    V   0.40857  0.81713  0.00000
V7    V   0.59143  0.18287  0.00000
V8    V   0.59143  0.40856  0.00000
V9    V   0.59144  0.18287  0.00000
V10   V   0.59144  0.40857  0.00000
V11   V   0.81713  0.40856  0.00000
V12   V   0.81713  0.40857  0.00000
EC1    EC   0.13030  0.46363  0.60030
EC2    EC   0.13030  0.66667  0.39970
EC3    EC   0.33333  0.46363  0.39970
EC4    EC   0.33333  0.86970  0.60030
EC5    EC   0.46363  0.13030  0.60030
EC6    EC   0.46363  0.33333  0.39970
EC7    EC   0.53637  0.66667  0.60030
EC8    EC   0.53637  0.86970  0.39970
EC9    EC   0.66667  0.13030  0.39970
EC10   EC   0.66667  0.53637  0.60030
EC11   EC   0.86970  0.33333  0.60030
EC12   EC   0.86970  0.53637  0.39970
E1    E   0.00000  0.39848  0.60030
E2    E   0.00000  0.60152  0.39970
E3    E   0.13030  0.56515  0.50000
E4    E   0.15659  0.52754  0.80015
E5    E   0.15659  0.62905  0.19985
E6    E   0.23181  0.46363  0.50000
E7    E   0.23181  0.76818  0.50000
E8    E   0.23182  0.46363  0.50000
E9    E   0.23182  0.76819  0.50000
E10   E   0.29572  0.59144  0.00000
E11   E   0.29572  0.70428  0.00000
E12   E   0.37095  0.52754  0.19985
E13   E   0.37095  0.84341  0.80015
E14   E   0.39848  0.00000  0.60030
E15   E   0.39848  0.39848  0.39970
E16   E   0.40856  0.70428  0.00000
E17   E   0.43485  0.56515  0.50000
E18   E   0.43485  0.86970  0.50000
E19   E   0.43485  0.56515  0.50000
E20   E   0.43485  0.86970  0.50000
E21   E   0.46363  0.23181  0.50000
E22   E   0.46363  0.23182  0.50000
E23   E   0.47246  0.62905  0.80015
E24   E   0.47246  0.84341  0.19985
E25   E   0.52754  0.15659  0.80015
E26   E   0.52754  0.37095  0.19985
E27   E   0.53637  0.76818  0.50000
E28   E   0.53637  0.76819  0.50000
E29   E   0.56515  0.13030  0.50000
E30   E   0.56515  0.43485  0.50000
E31   E   0.56515  0.43485  0.50000
E32   E   0.59144  0.29572  0.00000
E33   E   0.60152  0.00000  0.39970
E34   E   0.60152  0.60152  0.60030
E35   E   0.62905  0.15659  0.19985
E36   E   0.62905  0.47246  0.80015
E37   E   0.70428  0.29572  0.00000
E38   E   0.70428  0.40856  0.00000
E39   E   0.76818  0.23181  0.50000
E40   E   0.76818  0.53637  0.50000
E41   E   0.76819  0.23182  0.50000
E42   E   0.76819  0.53637  0.50000
E43   E   0.84341  0.37095  0.80015
E44   E   0.84341  0.47246  0.19985
E45   E   0.86970  0.43485  0.50000
E46   E   0.86970  0.43485  0.50000
loop_
