data_fvo_P63/mmc  hall_number: 488, V_con: 4, EC_con: 4
_audit_creation_date              2025-03-06
_audit_creation_method            'MOFbuilder_1.0'
_symmetry_space_group_name_H-M    'P1'
_symmetry_Int_Tables_number       1
_symmetry_cell_setting            triclinic
loop_
_symmetry_equiv_pos_as_xyz
  x,y,z
_cell_length_a                    39.9904
_cell_length_b                    39.9904
_cell_length_c                    49.013400000000004
_cell_angle_alpha                 90.0
_cell_angle_beta                  90.0
_cell_angle_gamma                 120.0
loop_
_atom_site_label
_atom_site_type_symbol
_atom_site_fract_x
_atom_site_fract_y
_atom_site_fract_z
V1    V   0.00000  0.25006  0.25000
V2    V   0.00000  0.25006  0.75000
V3    V   0.00000  0.74994  0.25000
V4    V   0.00000  0.74994  0.75000
V5    V   0.25006  0.00000  0.25000
V6    V   0.25006  0.00000  0.75000
V7    V   0.25006  0.25006  0.25000
V8    V   0.25006  0.25006  0.75000
V9    V   0.74994  0.00000  0.25000
V10   V   0.74994  0.00000  0.75000
V11   V   0.74994  0.74994  0.25000
V12   V   0.74994  0.74994  0.75000
EC1    EC   0.08327  0.41661  0.08333
EC2    EC   0.08327  0.41661  0.41667
EC3    EC   0.08327  0.66666  0.08333
EC4    EC   0.08327  0.66666  0.41667
EC5    EC   0.33334  0.41661  0.08333
EC6    EC   0.33334  0.41661  0.41667
EC7    EC   0.33334  0.91673  0.08333
EC8    EC   0.33334  0.91673  0.41667
EC9    EC   0.41661  0.08327  0.58333
EC10   EC   0.41661  0.08327  0.91667
EC11   EC   0.41661  0.33334  0.58333
EC12   EC   0.41661  0.33334  0.91667
EC13   EC   0.58339  0.66666  0.08333
EC14   EC   0.58339  0.66666  0.41667
EC15   EC   0.58339  0.91673  0.08333
EC16   EC   0.58339  0.91673  0.41667
EC17   EC   0.66666  0.08327  0.58333
EC18   EC   0.66666  0.08327  0.91667
EC19   EC   0.66666  0.58339  0.58333
EC20   EC   0.66666  0.58339  0.91667
EC21   EC   0.91673  0.33334  0.58333
EC22   EC   0.91673  0.33334  0.91667
EC23   EC   0.91673  0.58339  0.58333
EC24   EC   0.91673  0.58339  0.91667
E1    E   0.00000  0.37497  0.00000
E2    E   0.00000  0.37497  0.50000
E3    E   0.00000  0.62503  0.00000
E4    E   0.00000  0.62503  0.50000
E5    E   0.04164  0.33333  0.16667
E6    E   0.04164  0.33333  0.33333
E7    E   0.04164  0.70831  0.16667
E8    E   0.04164  0.70831  0.33333
E9    E   0.08327  0.54163  0.08333
E10   E   0.08327  0.54163  0.41667
E11   E   0.08327  0.54164  0.08333
E12   E   0.08327  0.54164  0.41667
E13   E   0.12503  0.25006  0.25000
E14   E   0.12503  0.25006  0.75000
E15   E   0.12503  0.87497  0.25000
E16   E   0.12503  0.87497  0.75000
E17   E   0.20830  0.41661  0.08333
E18   E   0.20830  0.41661  0.41667
E19   E   0.20830  0.79169  0.08333
E20   E   0.20830  0.79169  0.41667
E21   E   0.20831  0.41661  0.08333
E22   E   0.20831  0.41661  0.41667
E23   E   0.20831  0.79170  0.08333
E24   E   0.20831  0.79170  0.41667
E25   E   0.25006  0.12503  0.25000
E26   E   0.25006  0.12503  0.75000
E27   E   0.29169  0.33333  0.16667
E28   E   0.29169  0.33333  0.33333
E29   E   0.29169  0.95836  0.16667
E30   E   0.29169  0.95836  0.33333
E31   E   0.33333  0.04164  0.66667
E32   E   0.33333  0.04164  0.83333
E33   E   0.33333  0.29169  0.66667
E34   E   0.33333  0.29169  0.83333
E35   E   0.37497  0.00000  0.00000
E36   E   0.37497  0.00000  0.50000
E37   E   0.37497  0.37497  0.00000
E38   E   0.37497  0.37497  0.50000
E39   E   0.41661  0.20830  0.58333
E40   E   0.41661  0.20830  0.91667
E41   E   0.41661  0.20831  0.58333
E42   E   0.41661  0.20831  0.91667
E43   E   0.45836  0.54163  0.08333
E44   E   0.45836  0.54163  0.41667
E45   E   0.45836  0.91673  0.08333
E46   E   0.45836  0.91673  0.41667
E47   E   0.45837  0.54164  0.08333
E48   E   0.45837  0.54164  0.41667
E49   E   0.45837  0.91673  0.08333
E50   E   0.45837  0.91673  0.41667
E51   E   0.54163  0.08327  0.58333
E52   E   0.54163  0.08327  0.91667
E53   E   0.54163  0.45836  0.58333
E54   E   0.54163  0.45836  0.91667
E55   E   0.54164  0.08327  0.58333
E56   E   0.54164  0.08327  0.91667
E57   E   0.54164  0.45837  0.58333
E58   E   0.54164  0.45837  0.91667
E59   E   0.58339  0.79169  0.08333
E60   E   0.58339  0.79169  0.41667
E61   E   0.58339  0.79170  0.08333
E62   E   0.58339  0.79170  0.41667
E63   E   0.62503  0.00000  0.00000
E64   E   0.62503  0.00000  0.50000
E65   E   0.62503  0.62503  0.00000
E66   E   0.62503  0.62503  0.50000
E67   E   0.66667  0.70831  0.16667
E68   E   0.66667  0.70831  0.33333
E69   E   0.66667  0.95836  0.16667
E70   E   0.66667  0.95836  0.33333
E71   E   0.70831  0.04164  0.66667
E72   E   0.70831  0.04164  0.83333
E73   E   0.70831  0.66667  0.66667
E74   E   0.70831  0.66667  0.83333
E75   E   0.74994  0.87497  0.25000
E76   E   0.74994  0.87497  0.75000
E77   E   0.79169  0.20830  0.58333
E78   E   0.79169  0.20830  0.91667
E79   E   0.79169  0.58339  0.58333
E80   E   0.79169  0.58339  0.91667
E81   E   0.79170  0.20831  0.58333
E82   E   0.79170  0.20831  0.91667
E83   E   0.79170  0.58339  0.58333
E84   E   0.79170  0.58339  0.91667
E85   E   0.87497  0.12503  0.25000
E86   E   0.87497  0.12503  0.75000
E87   E   0.87497  0.74994  0.25000
E88   E   0.87497  0.74994  0.75000
E89   E   0.91673  0.45836  0.58333
E90   E   0.91673  0.45836  0.91667
E91   E   0.91673  0.45837  0.58333
E92   E   0.91673  0.45837  0.91667
E93   E   0.95836  0.29169  0.66667
E94   E   0.95836  0.29169  0.83333
E95   E   0.95836  0.66667  0.66667
E96   E   0.95836  0.66667  0.83333
loop_
