data_fvp_R-3m:H  hall_number: 166, V_con: 4, EC_con: 4
_audit_creation_date              2025-03-06
_audit_creation_method            'MOFbuilder_1.0'
_symmetry_space_group_name_H-M    'P1'
_symmetry_Int_Tables_number       1
_symmetry_cell_setting            triclinic
loop_
_symmetry_equiv_pos_as_xyz
  x,y,z
_cell_length_a                    40.0603
_cell_length_b                    40.0603
_cell_length_c                    97.68280000000001
_cell_angle_alpha                 90.0
_cell_angle_beta                  90.0
_cell_angle_gamma                 120.0
loop_
_atom_site_label
_atom_site_type_symbol
_atom_site_fract_x
_atom_site_fract_y
_atom_site_fract_z
V1    V   0.00000  0.24962  0.12500
V2    V   0.00000  0.74962  0.37500
V3    V   0.50000  0.25038  0.62500
V4    V   0.50000  0.75038  0.87500
EC1    EC   0.00000  0.24962  0.29167
EC2    EC   0.00000  0.74962  0.20833
EC3    EC   0.50000  0.25038  0.79167
EC4    EC   0.50000  0.75038  0.70833
E1    E   0.04186  0.33333  0.33333
E2    E   0.04186  0.83333  0.16667
E3    E   0.12481  0.24962  0.12500
E4    E   0.12481  0.24962  0.29167
E5    E   0.12481  0.74962  0.20833
E6    E   0.12481  0.74962  0.37500
E7    E   0.37519  0.37519  0.62500
E8    E   0.37519  0.37519  0.79167
E9    E   0.37519  0.87519  0.70833
E10   E   0.37519  0.87519  0.87500
E11   E   0.45814  0.20852  0.66667
E12   E   0.45814  0.70852  0.83333
E13   E   0.45815  0.20852  0.58333
E14   E   0.45815  0.70852  0.91667
E15   E   0.54186  0.16667  0.83333
E16   E   0.54186  0.66667  0.66667
E17   E   0.62481  0.25038  0.62500
E18   E   0.62481  0.25038  0.79167
E19   E   0.62481  0.75038  0.70833
E20   E   0.62481  0.75038  0.87500
E21   E   0.87519  0.12481  0.12500
E22   E   0.87519  0.12481  0.29167
E23   E   0.87519  0.62481  0.20833
E24   E   0.87519  0.62481  0.37500
E25   E   0.95814  0.29148  0.16667
E26   E   0.95814  0.79148  0.33333
E27   E   0.95815  0.29148  0.08333
E28   E   0.95815  0.79148  0.41667
loop_
