data_gal_Ia-3d  hall_number: 530, V_con: 8, EC_con: 6
_audit_creation_date              2025-03-06
_audit_creation_method            'MOFbuilder_1.0'
_symmetry_space_group_name_H-M    'P1'
_symmetry_Int_Tables_number       1
_symmetry_cell_setting            triclinic
loop_
_symmetry_equiv_pos_as_xyz
  x,y,z
_cell_length_a                    34.6739
_cell_length_b                    34.6739
_cell_length_c                    34.6739
_cell_angle_alpha                 90.0
_cell_angle_beta                  90.0
_cell_angle_gamma                 90.0
loop_
_atom_site_label
_atom_site_type_symbol
_atom_site_fract_x
_atom_site_fract_y
_atom_site_fract_z
V1    V   0.00000  0.25000  0.37500
V2    V   0.00000  0.25000  0.87500
V3    V   0.00000  0.75000  0.12500
V4    V   0.00000  0.75000  0.62500
V5    V   0.12500  0.00000  0.75000
V6    V   0.12500  0.50000  0.25000
V7    V   0.25000  0.12500  0.50000
V8    V   0.25000  0.37500  0.00000
V9    V   0.25000  0.62500  0.50000
V10   V   0.25000  0.87500  0.00000
V11   V   0.37500  0.00000  0.25000
V12   V   0.37500  0.50000  0.75000
V13   V   0.50000  0.25000  0.12500
V14   V   0.50000  0.25000  0.62500
V15   V   0.50000  0.75000  0.37500
V16   V   0.50000  0.75000  0.87500
V17   V   0.62500  0.00000  0.75000
V18   V   0.62500  0.50000  0.25000
V19   V   0.75000  0.12500  0.00000
V20   V   0.75000  0.37500  0.50000
V21   V   0.75000  0.62500  0.00000
V22   V   0.75000  0.87500  0.50000
V23   V   0.87500  0.00000  0.25000
V24   V   0.87500  0.50000  0.75000
EC1    EC   0.00000  0.00000  0.00000
EC2    EC   0.00000  0.00000  0.50000
EC3    EC   0.00000  0.50000  0.00000
EC4    EC   0.00000  0.50000  0.50000
EC5    EC   0.25000  0.25000  0.25000
EC6    EC   0.25000  0.25000  0.75000
EC7    EC   0.25000  0.75000  0.25000
EC8    EC   0.25000  0.75000  0.75000
EC9    EC   0.50000  0.00000  0.00000
EC10   EC   0.50000  0.00000  0.50000
EC11   EC   0.50000  0.50000  0.00000
EC12   EC   0.50000  0.50000  0.50000
EC13   EC   0.75000  0.25000  0.25000
EC14   EC   0.75000  0.25000  0.75000
EC15   EC   0.75000  0.75000  0.25000
EC16   EC   0.75000  0.75000  0.75000
E1    E   0.00000  0.12500  0.43750
E2    E   0.00000  0.12500  0.93750
E3    E   0.00000  0.37500  0.43750
E4    E   0.00000  0.37500  0.93750
E5    E   0.00000  0.62500  0.06250
E6    E   0.00000  0.62500  0.56250
E7    E   0.00000  0.87500  0.06250
E8    E   0.00000  0.87500  0.56250
E9    E   0.06250  0.00000  0.62500
E10   E   0.06250  0.00000  0.87500
E11   E   0.06250  0.12500  0.81250
E12   E   0.06250  0.37500  0.31250
E13   E   0.06250  0.50000  0.12500
E14   E   0.06250  0.50000  0.37500
E15   E   0.06250  0.62500  0.18750
E16   E   0.06250  0.87500  0.68750
E17   E   0.12500  0.06250  0.50000
E18   E   0.12500  0.18750  0.43750
E19   E   0.12500  0.25000  0.31250
E20   E   0.12500  0.25000  0.81250
E21   E   0.12500  0.31250  0.93750
E22   E   0.12500  0.43750  0.00000
E23   E   0.12500  0.56250  0.50000
E24   E   0.12500  0.68750  0.56250
E25   E   0.12500  0.75000  0.18750
E26   E   0.12500  0.75000  0.68750
E27   E   0.12500  0.81250  0.06250
E28   E   0.12500  0.93750  0.00000
E29   E   0.18750  0.06250  0.62500
E30   E   0.18750  0.12500  0.75000
E31   E   0.18750  0.37500  0.25000
E32   E   0.18750  0.43750  0.12500
E33   E   0.18750  0.56250  0.37500
E34   E   0.18750  0.62500  0.25000
E35   E   0.18750  0.87500  0.75000
E36   E   0.18750  0.93750  0.87500
E37   E   0.25000  0.18750  0.37500
E38   E   0.25000  0.18750  0.62500
E39   E   0.25000  0.31250  0.12500
E40   E   0.25000  0.31250  0.87500
E41   E   0.25000  0.68750  0.37500
E42   E   0.25000  0.68750  0.62500
E43   E   0.25000  0.81250  0.12500
E44   E   0.25000  0.81250  0.87500
E45   E   0.31250  0.06250  0.37500
E46   E   0.31250  0.12500  0.25000
E47   E   0.31250  0.37500  0.75000
E48   E   0.31250  0.43750  0.87500
E49   E   0.31250  0.56250  0.62500
E50   E   0.31250  0.62500  0.75000
E51   E   0.31250  0.87500  0.25000
E52   E   0.31250  0.93750  0.12500
E53   E   0.37500  0.06250  0.50000
E54   E   0.37500  0.18750  0.56250
E55   E   0.37500  0.25000  0.18750
E56   E   0.37500  0.25000  0.68750
E57   E   0.37500  0.31250  0.06250
E58   E   0.37500  0.43750  0.00000
E59   E   0.37500  0.56250  0.50000
E60   E   0.37500  0.68750  0.43750
E61   E   0.37500  0.75000  0.31250
E62   E   0.37500  0.75000  0.81250
E63   E   0.37500  0.81250  0.93750
E64   E   0.37500  0.93750  0.00000
E65   E   0.43750  0.00000  0.12500
E66   E   0.43750  0.00000  0.37500
E67   E   0.43750  0.12500  0.18750
E68   E   0.43750  0.37500  0.68750
E69   E   0.43750  0.50000  0.62500
E70   E   0.43750  0.50000  0.87500
E71   E   0.43750  0.62500  0.81250
E72   E   0.43750  0.87500  0.31250
E73   E   0.50000  0.12500  0.06250
E74   E   0.50000  0.12500  0.56250
E75   E   0.50000  0.37500  0.06250
E76   E   0.50000  0.37500  0.56250
E77   E   0.50000  0.62500  0.43750
E78   E   0.50000  0.62500  0.93750
E79   E   0.50000  0.87500  0.43750
E80   E   0.50000  0.87500  0.93750
E81   E   0.56250  0.00000  0.62500
E82   E   0.56250  0.00000  0.87500
E83   E   0.56250  0.12500  0.68750
E84   E   0.56250  0.37500  0.18750
E85   E   0.56250  0.50000  0.12500
E86   E   0.56250  0.50000  0.37500
E87   E   0.56250  0.62500  0.31250
E88   E   0.56250  0.87500  0.81250
E89   E   0.62500  0.06250  0.00000
E90   E   0.62500  0.18750  0.06250
E91   E   0.62500  0.25000  0.18750
E92   E   0.62500  0.25000  0.68750
E93   E   0.62500  0.31250  0.56250
E94   E   0.62500  0.43750  0.50000
E95   E   0.62500  0.56250  0.00000
E96   E   0.62500  0.68750  0.93750
E97   E   0.62500  0.75000  0.31250
E98   E   0.62500  0.75000  0.81250
E99   E   0.62500  0.81250  0.43750
E100  E   0.62500  0.93750  0.50000
E101  E   0.68750  0.06250  0.87500
E102  E   0.68750  0.12500  0.75000
E103  E   0.68750  0.37500  0.25000
E104  E   0.68750  0.43750  0.37500
E105  E   0.68750  0.56250  0.12500
E106  E   0.68750  0.62500  0.25000
E107  E   0.68750  0.87500  0.75000
E108  E   0.68750  0.93750  0.62500
E109  E   0.75000  0.18750  0.12500
E110  E   0.75000  0.18750  0.87500
E111  E   0.75000  0.31250  0.37500
E112  E   0.75000  0.31250  0.62500
E113  E   0.75000  0.68750  0.12500
E114  E   0.75000  0.68750  0.87500
E115  E   0.75000  0.81250  0.37500
E116  E   0.75000  0.81250  0.62500
E117  E   0.81250  0.06250  0.12500
E118  E   0.81250  0.12500  0.25000
E119  E   0.81250  0.37500  0.75000
E120  E   0.81250  0.43750  0.62500
E121  E   0.81250  0.56250  0.87500
E122  E   0.81250  0.62500  0.75000
E123  E   0.81250  0.87500  0.25000
E124  E   0.81250  0.93750  0.37500
E125  E   0.87500  0.06250  0.00000
E126  E   0.87500  0.18750  0.93750
E127  E   0.87500  0.25000  0.31250
E128  E   0.87500  0.25000  0.81250
E129  E   0.87500  0.31250  0.43750
E130  E   0.87500  0.43750  0.50000
E131  E   0.87500  0.56250  0.00000
E132  E   0.87500  0.68750  0.06250
E133  E   0.87500  0.75000  0.18750
E134  E   0.87500  0.75000  0.68750
E135  E   0.87500  0.81250  0.56250
E136  E   0.87500  0.93750  0.50000
E137  E   0.93750  0.00000  0.12500
E138  E   0.93750  0.00000  0.37500
E139  E   0.93750  0.12500  0.31250
E140  E   0.93750  0.37500  0.81250
E141  E   0.93750  0.50000  0.62500
E142  E   0.93750  0.50000  0.87500
E143  E   0.93750  0.62500  0.68750
E144  E   0.93750  0.87500  0.18750
loop_
