data_gme_P63/mmc  hall_number: 488, V_con: 4
_audit_creation_date              2025-03-06
_audit_creation_method            'MOFbuilder_1.0'
_symmetry_space_group_name_H-M    'P1'
_symmetry_Int_Tables_number       1
_symmetry_cell_setting            triclinic
loop_
_symmetry_equiv_pos_as_xyz
  x,y,z
_cell_length_a                    43.628
_cell_length_b                    43.628
_cell_length_c                    32.3437
_cell_angle_alpha                 90.0
_cell_angle_beta                  90.0
_cell_angle_gamma                 120.0
loop_
_atom_site_label
_atom_site_type_symbol
_atom_site_fract_x
_atom_site_fract_y
_atom_site_fract_z
V1    V   0.10412  0.43746  0.59541
V2    V   0.10412  0.43746  0.90459
V3    V   0.10412  0.66666  0.59541
V4    V   0.10412  0.66666  0.90459
V5    V   0.33334  0.43746  0.59541
V6    V   0.33334  0.43746  0.90459
V7    V   0.33334  0.89588  0.59541
V8    V   0.33334  0.89588  0.90459
V9    V   0.43746  0.10412  0.09541
V10   V   0.43746  0.10412  0.40459
V11   V   0.43746  0.33334  0.09541
V12   V   0.43746  0.33334  0.40459
V13   V   0.56254  0.66666  0.59541
V14   V   0.56254  0.66666  0.90459
V15   V   0.56254  0.89588  0.59541
V16   V   0.56254  0.89588  0.90459
V17   V   0.66666  0.10412  0.09541
V18   V   0.66666  0.10412  0.40459
V19   V   0.66666  0.56254  0.09541
V20   V   0.66666  0.56254  0.40459
V21   V   0.89588  0.33334  0.09541
V22   V   0.89588  0.33334  0.40459
V23   V   0.89588  0.56254  0.09541
V24   V   0.89588  0.56254  0.40459
E1    E   0.00000  0.38539  0.00000
E2    E   0.00000  0.38539  0.50000
E3    E   0.00000  0.61461  0.00000
E4    E   0.00000  0.61461  0.50000
E5    E   0.10412  0.43746  0.75000
E6    E   0.10412  0.55206  0.59541
E7    E   0.10412  0.55206  0.90459
E8    E   0.10412  0.66666  0.75000
E9    E   0.21873  0.43746  0.59541
E10   E   0.21873  0.43746  0.90459
E11   E   0.21873  0.78127  0.59541
E12   E   0.21873  0.78127  0.90459
E13   E   0.33334  0.43746  0.75000
E14   E   0.33334  0.89588  0.75000
E15   E   0.38539  0.00000  0.00000
E16   E   0.38539  0.00000  0.50000
E17   E   0.38539  0.38539  0.00000
E18   E   0.38539  0.38539  0.50000
E19   E   0.43746  0.10412  0.25000
E20   E   0.43746  0.21873  0.09541
E21   E   0.43746  0.21873  0.40459
E22   E   0.43746  0.33334  0.25000
E23   E   0.44794  0.55206  0.59541
E24   E   0.44794  0.55206  0.90459
E25   E   0.44794  0.89588  0.59541
E26   E   0.44794  0.89588  0.90459
E27   E   0.55206  0.10412  0.09541
E28   E   0.55206  0.10412  0.40459
E29   E   0.55206  0.44794  0.09541
E30   E   0.55206  0.44794  0.40459
E31   E   0.56254  0.66666  0.75000
E32   E   0.56254  0.78127  0.59541
E33   E   0.56254  0.78127  0.90459
E34   E   0.56254  0.89588  0.75000
E35   E   0.61461  0.00000  0.00000
E36   E   0.61461  0.00000  0.50000
E37   E   0.61461  0.61461  0.00000
E38   E   0.61461  0.61461  0.50000
E39   E   0.66666  0.10412  0.25000
E40   E   0.66666  0.56254  0.25000
E41   E   0.78127  0.21873  0.09541
E42   E   0.78127  0.21873  0.40459
E43   E   0.78127  0.56254  0.09541
E44   E   0.78127  0.56254  0.40459
E45   E   0.89588  0.33334  0.25000
E46   E   0.89588  0.44794  0.09541
E47   E   0.89588  0.44794  0.40459
E48   E   0.89588  0.56254  0.25000
loop_
