data_gpu-x_Fddd:2  hall_number: 336, V_con: 14
_audit_creation_date              2025-03-06
_audit_creation_method            'MOFbuilder_1.0'
_symmetry_space_group_name_H-M    'P1'
_symmetry_Int_Tables_number       1
_symmetry_cell_setting            triclinic
loop_
_symmetry_equiv_pos_as_xyz
  x,y,z
_cell_length_a                    30.214599999999997
_cell_length_b                    9.1097
_cell_length_c                    18.209
_cell_angle_alpha                 90.0
_cell_angle_beta                  90.0
_cell_angle_gamma                 90.0
loop_
_atom_site_label
_atom_site_type_symbol
_atom_site_fract_x
_atom_site_fract_y
_atom_site_fract_z
V1    V   0.12500  0.12500  0.62500
V2    V   0.12500  0.62500  0.12500
V3    V   0.37500  0.37500  0.37500
V4    V   0.37500  0.87500  0.87500
V5    V   0.62500  0.12500  0.12500
V6    V   0.62500  0.62500  0.62500
V7    V   0.87500  0.37500  0.87500
V8    V   0.87500  0.87500  0.37500
E1    E   0.00000  0.00000  0.00000
E2    E   0.00000  0.00000  0.50000
E3    E   0.00000  0.25000  0.25000
E4    E   0.00000  0.25000  0.75000
E5    E   0.00000  0.50000  0.00000
E6    E   0.00000  0.50000  0.50000
E7    E   0.00000  0.75000  0.25000
E8    E   0.00000  0.75000  0.75000
E9    E   0.12500  0.12500  0.12500
E10   E   0.12500  0.37500  0.37500
E11   E   0.12500  0.37500  0.87500
E12   E   0.12500  0.62500  0.62500
E13   E   0.12500  0.87500  0.37500
E14   E   0.12500  0.87500  0.87500
E15   E   0.25000  0.00000  0.25000
E16   E   0.25000  0.00000  0.75000
E17   E   0.25000  0.25000  0.00000
E18   E   0.25000  0.25000  0.50000
E19   E   0.25000  0.50000  0.25000
E20   E   0.25000  0.50000  0.75000
E21   E   0.25000  0.75000  0.00000
E22   E   0.25000  0.75000  0.50000
E23   E   0.37500  0.12500  0.12500
E24   E   0.37500  0.12500  0.62500
E25   E   0.37500  0.37500  0.87500
E26   E   0.37500  0.62500  0.12500
E27   E   0.37500  0.62500  0.62500
E28   E   0.37500  0.87500  0.37500
E29   E   0.50000  0.00000  0.00000
E30   E   0.50000  0.00000  0.50000
E31   E   0.50000  0.25000  0.25000
E32   E   0.50000  0.25000  0.75000
E33   E   0.50000  0.50000  0.00000
E34   E   0.50000  0.50000  0.50000
E35   E   0.50000  0.75000  0.25000
E36   E   0.50000  0.75000  0.75000
E37   E   0.62500  0.12500  0.62500
E38   E   0.62500  0.37500  0.37500
E39   E   0.62500  0.37500  0.87500
E40   E   0.62500  0.62500  0.12500
E41   E   0.62500  0.87500  0.37500
E42   E   0.62500  0.87500  0.87500
E43   E   0.75000  0.00000  0.25000
E44   E   0.75000  0.00000  0.75000
E45   E   0.75000  0.25000  0.00000
E46   E   0.75000  0.25000  0.50000
E47   E   0.75000  0.50000  0.25000
E48   E   0.75000  0.50000  0.75000
E49   E   0.75000  0.75000  0.00000
E50   E   0.75000  0.75000  0.50000
E51   E   0.87500  0.12500  0.12500
E52   E   0.87500  0.12500  0.62500
E53   E   0.87500  0.37500  0.37500
E54   E   0.87500  0.62500  0.12500
E55   E   0.87500  0.62500  0.62500
E56   E   0.87500  0.87500  0.87500
loop_
