data_hbo_Pm-3n  hall_number: 520, V_con: 4
_audit_creation_date              2025-03-06
_audit_creation_method            'MOFbuilder_1.0'
_symmetry_space_group_name_H-M    'P1'
_symmetry_Int_Tables_number       1
_symmetry_cell_setting            triclinic
loop_
_symmetry_equiv_pos_as_xyz
  x,y,z
_cell_length_a                    36.3299
_cell_length_b                    36.3299
_cell_length_c                    36.3299
_cell_angle_alpha                 90.0
_cell_angle_beta                  90.0
_cell_angle_gamma                 90.0
loop_
_atom_site_label
_atom_site_type_symbol
_atom_site_fract_x
_atom_site_fract_y
_atom_site_fract_z
V1    V   0.13763  0.36237  0.25000
V2    V   0.13763  0.36237  0.75000
V3    V   0.13763  0.63763  0.25000
V4    V   0.13763  0.63763  0.75000
V5    V   0.13763  0.36237  0.25000
V6    V   0.13763  0.36237  0.75000
V7    V   0.13763  0.63763  0.25000
V8    V   0.13763  0.63763  0.75000
V9    V   0.25000  0.13763  0.36237
V10   V   0.25000  0.13763  0.63763
V11   V   0.25000  0.13763  0.36237
V12   V   0.25000  0.13763  0.63763
V13   V   0.25000  0.86237  0.36237
V14   V   0.25000  0.86237  0.63763
V15   V   0.25000  0.86237  0.36237
V16   V   0.25000  0.86237  0.63763
V17   V   0.36237  0.25000  0.13763
V18   V   0.36237  0.25000  0.86237
V19   V   0.36237  0.75000  0.13763
V20   V   0.36237  0.75000  0.86237
V21   V   0.36237  0.25000  0.13763
V22   V   0.36237  0.25000  0.86237
V23   V   0.36237  0.75000  0.13763
V24   V   0.36237  0.75000  0.86237
V25   V   0.63763  0.25000  0.13763
V26   V   0.63763  0.25000  0.86237
V27   V   0.63763  0.75000  0.13763
V28   V   0.63763  0.75000  0.86237
V29   V   0.63763  0.25000  0.13763
V30   V   0.63763  0.25000  0.86237
V31   V   0.63763  0.75000  0.13763
V32   V   0.63763  0.75000  0.86237
V33   V   0.75000  0.13763  0.36237
V34   V   0.75000  0.13763  0.63763
V35   V   0.75000  0.13763  0.36237
V36   V   0.75000  0.13763  0.63763
V37   V   0.75000  0.86237  0.36237
V38   V   0.75000  0.86237  0.63763
V39   V   0.75000  0.86237  0.36237
V40   V   0.75000  0.86237  0.63763
V41   V   0.86237  0.36237  0.25000
V42   V   0.86237  0.36237  0.75000
V43   V   0.86237  0.63763  0.25000
V44   V   0.86237  0.63763  0.75000
V45   V   0.86237  0.36237  0.25000
V46   V   0.86237  0.36237  0.75000
V47   V   0.86237  0.63763  0.25000
V48   V   0.86237  0.63763  0.75000
E1    E   0.00000  0.36237  0.25000
E2    E   0.00000  0.36237  0.75000
E3    E   0.00000  0.63763  0.25000
E4    E   0.00000  0.63763  0.75000
E5    E   0.13763  0.50000  0.25000
E6    E   0.13763  0.50000  0.75000
E7    E   0.19381  0.25000  0.30619
E8    E   0.19381  0.25000  0.69381
E9    E   0.19381  0.75000  0.30619
E10   E   0.19381  0.75000  0.69381
E11   E   0.19381  0.25000  0.30619
E12   E   0.19381  0.25000  0.69381
E13   E   0.19381  0.75000  0.30619
E14   E   0.19381  0.75000  0.69381
E15   E   0.25000  0.00000  0.36237
E16   E   0.25000  0.00000  0.63763
E17   E   0.25000  0.13763  0.50000
E18   E   0.25000  0.30619  0.19381
E19   E   0.25000  0.30619  0.80619
E20   E   0.25000  0.30619  0.19381
E21   E   0.25000  0.30619  0.80619
E22   E   0.25000  0.69381  0.19381
E23   E   0.25000  0.69381  0.19381
E24   E   0.25000  0.69381  0.80619
E25   E   0.25000  0.86237  0.50000
E26   E   0.30619  0.19381  0.25000
E27   E   0.30619  0.19381  0.75000
E28   E   0.30619  0.80619  0.25000
E29   E   0.30619  0.80619  0.75000
E30   E   0.30619  0.19381  0.25000
E31   E   0.30619  0.19381  0.75000
E32   E   0.30619  0.80619  0.25000
E33   E   0.30619  0.80619  0.75000
E34   E   0.36237  0.25000  0.00000
E35   E   0.36237  0.75000  0.00000
E36   E   0.50000  0.25000  0.13763
E37   E   0.50000  0.25000  0.86237
E38   E   0.50000  0.75000  0.13763
E39   E   0.50000  0.75000  0.86237
E40   E   0.63763  0.25000  0.00000
E41   E   0.63763  0.75000  0.00000
E42   E   0.69381  0.19381  0.25000
E43   E   0.69381  0.19381  0.75000
E44   E   0.69381  0.19381  0.25000
E45   E   0.69381  0.19381  0.75000
E46   E   0.69381  0.80619  0.25000
E47   E   0.69381  0.80619  0.75000
E48   E   0.75000  0.00000  0.36237
E49   E   0.75000  0.00000  0.63763
E50   E   0.75000  0.13763  0.50000
E51   E   0.75000  0.30619  0.19381
E52   E   0.75000  0.30619  0.80619
E53   E   0.75000  0.30619  0.19381
E54   E   0.75000  0.30619  0.80619
E55   E   0.75000  0.69381  0.19381
E56   E   0.75000  0.69381  0.19381
E57   E   0.75000  0.69381  0.80619
E58   E   0.75000  0.86237  0.50000
E59   E   0.80619  0.25000  0.30619
E60   E   0.80619  0.25000  0.30619
E61   E   0.80619  0.25000  0.69381
E62   E   0.80619  0.75000  0.30619
E63   E   0.80619  0.75000  0.30619
E64   E   0.80619  0.75000  0.69381
E65   E   0.86237  0.50000  0.25000
E66   E   0.86237  0.50000  0.75000
loop_
