data_hlz_P42/mnm  hall_number: 419, V_con: 8, EC_con: 5
_audit_creation_date              2025-03-06
_audit_creation_method            'MOFbuilder_1.0'
_symmetry_space_group_name_H-M    'P1'
_symmetry_Int_Tables_number       1
_symmetry_cell_setting            triclinic
loop_
_symmetry_equiv_pos_as_xyz
  x,y,z
_cell_length_a                    31.2133
_cell_length_b                    31.2133
_cell_length_c                    9.9999
_cell_angle_alpha                 90.0
_cell_angle_beta                  90.0
_cell_angle_gamma                 90.0
loop_
_atom_site_label
_atom_site_type_symbol
_atom_site_fract_x
_atom_site_fract_y
_atom_site_fract_z
V1    V   0.11327  0.11327  0.00000
V2    V   0.38673  0.61327  0.50000
V3    V   0.61327  0.38673  0.50000
V4    V   0.88673  0.88673  0.00000
EC1    EC   0.16019  0.83981  0.50000
EC2    EC   0.33981  0.33981  0.00000
EC3    EC   0.66019  0.66019  0.00000
EC4    EC   0.83981  0.16019  0.50000
E1    E   0.00000  0.00000  0.00000
E2    E   0.02346  0.86327  0.25000
E3    E   0.02346  0.86327  0.75000
E4    E   0.11327  0.11327  0.50000
E5    E   0.13673  0.97654  0.25000
E6    E   0.13673  0.97654  0.75000
E7    E   0.22654  0.22654  0.00000
E8    E   0.27346  0.72654  0.50000
E9    E   0.36327  0.47654  0.25000
E10   E   0.36327  0.47654  0.75000
E11   E   0.38673  0.61327  0.00000
E12   E   0.47654  0.36327  0.25000
E13   E   0.47654  0.36327  0.75000
E14   E   0.50000  0.50000  0.50000
E15   E   0.52346  0.63673  0.25000
E16   E   0.52346  0.63673  0.75000
E17   E   0.61327  0.38673  0.00000
E18   E   0.63673  0.52346  0.25000
E19   E   0.63673  0.52346  0.75000
E20   E   0.72654  0.27346  0.50000
E21   E   0.77346  0.77346  0.00000
E22   E   0.86327  0.02346  0.25000
E23   E   0.86327  0.02346  0.75000
E24   E   0.88673  0.88673  0.50000
E25   E   0.97654  0.13673  0.25000
E26   E   0.97654  0.13673  0.75000
loop_
