data_hof_I4/mmm  hall_number: 424, V_con: 4, EC_con: 3
_audit_creation_date              2025-03-06
_audit_creation_method            'MOFbuilder_1.0'
_symmetry_space_group_name_H-M    'P1'
_symmetry_Int_Tables_number       1
_symmetry_cell_setting            triclinic
loop_
_symmetry_equiv_pos_as_xyz
  x,y,z
_cell_length_a                    35.9985
_cell_length_b                    35.9985
_cell_length_c                    16.7625
_cell_angle_alpha                 90.0
_cell_angle_beta                  90.0
_cell_angle_gamma                 90.0
loop_
_atom_site_label
_atom_site_type_symbol
_atom_site_fract_x
_atom_site_fract_y
_atom_site_fract_z
V1    V   0.00000  0.00000  0.00000
V2    V   0.50000  0.50000  0.50000
EC1    EC   0.19643  0.19643  0.00000
EC2    EC   0.19643  0.80357  0.00000
EC3    EC   0.30357  0.30357  0.50000
EC4    EC   0.30357  0.69643  0.50000
EC5    EC   0.69643  0.30357  0.50000
EC6    EC   0.69643  0.69643  0.50000
EC7    EC   0.80357  0.19643  0.00000
EC8    EC   0.80357  0.80357  0.00000
E1    E   0.09821  0.09821  0.00000
E2    E   0.09821  0.90179  0.00000
E3    E   0.25000  0.25000  0.25000
E4    E   0.25000  0.25000  0.75000
E5    E   0.25000  0.75000  0.25000
E6    E   0.25000  0.75000  0.75000
E7    E   0.40179  0.40179  0.50000
E8    E   0.40179  0.59821  0.50000
E9    E   0.59821  0.40179  0.50000
E10   E   0.59821  0.59821  0.50000
E11   E   0.75000  0.25000  0.25000
E12   E   0.75000  0.25000  0.75000
E13   E   0.75000  0.75000  0.25000
E14   E   0.75000  0.75000  0.75000
E15   E   0.90179  0.09821  0.00000
E16   E   0.90179  0.90179  0.00000
loop_
