data_ibd-a_Ia-3d  hall_number: 530, V_con: 5, EC_con: 4
_audit_creation_date              2025-03-06
_audit_creation_method            'MOFbuilder_1.0'
_symmetry_space_group_name_H-M    'P1'
_symmetry_Int_Tables_number       1
_symmetry_cell_setting            triclinic
loop_
_symmetry_equiv_pos_as_xyz
  x,y,z
_cell_length_a                    71.3949
_cell_length_b                    71.3949
_cell_length_c                    71.3949
_cell_angle_alpha                 90.0
_cell_angle_beta                  90.0
_cell_angle_gamma                 90.0
loop_
_atom_site_label
_atom_site_type_symbol
_atom_site_fract_x
_atom_site_fract_y
_atom_site_fract_z
V1    V   0.05897  0.05897  0.15801
V2    V   0.05897  0.15801  0.05897
V3    V   0.05897  0.34199  0.55897
V4    V   0.05897  0.44103  0.65801
V5    V   0.05897  0.55897  0.84199
V6    V   0.05897  0.65801  0.94103
V7    V   0.05897  0.84199  0.44103
V8    V   0.05897  0.94103  0.34199
V9    V   0.09199  0.19103  0.19103
V10   V   0.09199  0.30897  0.69103
V11   V   0.09199  0.69103  0.80897
V12   V   0.09199  0.80897  0.30897
V13   V   0.15801  0.05897  0.05897
V14   V   0.15801  0.44103  0.55897
V15   V   0.15801  0.55897  0.94103
V16   V   0.15801  0.94103  0.44103
V17   V   0.19103  0.09199  0.19103
V18   V   0.19103  0.19103  0.09199
V19   V   0.19103  0.30897  0.59199
V20   V   0.19103  0.40801  0.69103
V21   V   0.19103  0.59199  0.80897
V22   V   0.19103  0.69103  0.90801
V23   V   0.19103  0.80897  0.40801
V24   V   0.19103  0.90801  0.30897
V25   V   0.30897  0.09199  0.80897
V26   V   0.30897  0.19103  0.90801
V27   V   0.30897  0.30897  0.40801
V28   V   0.30897  0.40801  0.30897
V29   V   0.30897  0.59199  0.19103
V30   V   0.30897  0.69103  0.09199
V31   V   0.30897  0.80897  0.59199
V32   V   0.30897  0.90801  0.69103
V33   V   0.34199  0.05897  0.94103
V34   V   0.34199  0.44103  0.44103
V35   V   0.34199  0.55897  0.05897
V36   V   0.34199  0.94103  0.55897
V37   V   0.40801  0.19103  0.80897
V38   V   0.40801  0.30897  0.30897
V39   V   0.40801  0.69103  0.19103
V40   V   0.40801  0.80897  0.69103
V41   V   0.44103  0.05897  0.84199
V42   V   0.44103  0.15801  0.94103
V43   V   0.44103  0.34199  0.44103
V44   V   0.44103  0.44103  0.34199
V45   V   0.44103  0.55897  0.15801
V46   V   0.44103  0.65801  0.05897
V47   V   0.44103  0.84199  0.55897
V48   V   0.44103  0.94103  0.65801
V49   V   0.55897  0.05897  0.34199
V50   V   0.55897  0.15801  0.44103
V51   V   0.55897  0.34199  0.94103
V52   V   0.55897  0.44103  0.84199
V53   V   0.55897  0.55897  0.65801
V54   V   0.55897  0.65801  0.55897
V55   V   0.55897  0.84199  0.05897
V56   V   0.55897  0.94103  0.15801
V57   V   0.59199  0.19103  0.30897
V58   V   0.59199  0.30897  0.80897
V59   V   0.59199  0.69103  0.69103
V60   V   0.59199  0.80897  0.19103
V61   V   0.65801  0.05897  0.44103
V62   V   0.65801  0.44103  0.94103
V63   V   0.65801  0.55897  0.55897
V64   V   0.65801  0.94103  0.05897
V65   V   0.69103  0.09199  0.30897
V66   V   0.69103  0.19103  0.40801
V67   V   0.69103  0.30897  0.90801
V68   V   0.69103  0.40801  0.80897
V69   V   0.69103  0.59199  0.69103
V70   V   0.69103  0.69103  0.59199
V71   V   0.69103  0.80897  0.09199
V72   V   0.69103  0.90801  0.19103
V73   V   0.80897  0.09199  0.69103
V74   V   0.80897  0.19103  0.59199
V75   V   0.80897  0.30897  0.09199
V76   V   0.80897  0.40801  0.19103
V77   V   0.80897  0.59199  0.30897
V78   V   0.80897  0.69103  0.40801
V79   V   0.80897  0.80897  0.90801
V80   V   0.80897  0.90801  0.80897
V81   V   0.84199  0.05897  0.55897
V82   V   0.84199  0.44103  0.05897
V83   V   0.84199  0.55897  0.44103
V84   V   0.84199  0.94103  0.94103
V85   V   0.90801  0.19103  0.69103
V86   V   0.90801  0.30897  0.19103
V87   V   0.90801  0.69103  0.30897
V88   V   0.90801  0.80897  0.80897
V89   V   0.94103  0.05897  0.65801
V90   V   0.94103  0.15801  0.55897
V91   V   0.94103  0.34199  0.05897
V92   V   0.94103  0.44103  0.15801
V93   V   0.94103  0.55897  0.34199
V94   V   0.94103  0.65801  0.44103
V95   V   0.94103  0.84199  0.94103
V96   V   0.94103  0.94103  0.84199
EC1    EC   0.03869  0.19162  0.92452
EC2    EC   0.03869  0.30838  0.42452
EC3    EC   0.03869  0.69162  0.07548
EC4    EC   0.03869  0.80838  0.57548
EC5    EC   0.05838  0.21131  0.32548
EC6    EC   0.05838  0.28869  0.82548
EC7    EC   0.05838  0.71131  0.67452
EC8    EC   0.05838  0.78869  0.17452
EC9    EC   0.07548  0.03869  0.69162
EC10   EC   0.07548  0.46131  0.19162
EC11   EC   0.07548  0.53869  0.30838
EC12   EC   0.07548  0.96131  0.80838
EC13   EC   0.17452  0.05838  0.78869
EC14   EC   0.17452  0.44162  0.28869
EC15   EC   0.17452  0.55838  0.21131
EC16   EC   0.17452  0.94162  0.71131
EC17   EC   0.19162  0.07548  0.46131
EC18   EC   0.19162  0.42452  0.96131
EC19   EC   0.19162  0.57548  0.53869
EC20   EC   0.19162  0.92452  0.03869
EC21   EC   0.21131  0.17452  0.55838
EC22   EC   0.21131  0.32548  0.05838
EC23   EC   0.21131  0.67452  0.44162
EC24   EC   0.21131  0.82548  0.94162
EC25   EC   0.28869  0.17452  0.44162
EC26   EC   0.28869  0.32548  0.94162
EC27   EC   0.28869  0.67452  0.55838
EC28   EC   0.28869  0.82548  0.05838
EC29   EC   0.30838  0.07548  0.53869
EC30   EC   0.30838  0.42452  0.03869
EC31   EC   0.30838  0.57548  0.46131
EC32   EC   0.30838  0.92452  0.96131
EC33   EC   0.32548  0.05838  0.21131
EC34   EC   0.32548  0.44162  0.71131
EC35   EC   0.32548  0.55838  0.78869
EC36   EC   0.32548  0.94162  0.28869
EC37   EC   0.42452  0.03869  0.30838
EC38   EC   0.42452  0.46131  0.80838
EC39   EC   0.42452  0.53869  0.69162
EC40   EC   0.42452  0.96131  0.19162
EC41   EC   0.44162  0.21131  0.67452
EC42   EC   0.44162  0.28869  0.17452
EC43   EC   0.44162  0.71131  0.32548
EC44   EC   0.44162  0.78869  0.82548
EC45   EC   0.46131  0.19162  0.07548
EC46   EC   0.46131  0.30838  0.57548
EC47   EC   0.46131  0.69162  0.92452
EC48   EC   0.46131  0.80838  0.42452
EC49   EC   0.53869  0.19162  0.57548
EC50   EC   0.53869  0.30838  0.07548
EC51   EC   0.53869  0.69162  0.42452
EC52   EC   0.53869  0.80838  0.92452
EC53   EC   0.55838  0.21131  0.17452
EC54   EC   0.55838  0.28869  0.67452
EC55   EC   0.55838  0.71131  0.82548
EC56   EC   0.55838  0.78869  0.32548
EC57   EC   0.57548  0.03869  0.80838
EC58   EC   0.57548  0.46131  0.30838
EC59   EC   0.57548  0.53869  0.19162
EC60   EC   0.57548  0.96131  0.69162
EC61   EC   0.67452  0.05838  0.71131
EC62   EC   0.67452  0.44162  0.21131
EC63   EC   0.67452  0.55838  0.28869
EC64   EC   0.67452  0.94162  0.78869
EC65   EC   0.69162  0.07548  0.03869
EC66   EC   0.69162  0.42452  0.53869
EC67   EC   0.69162  0.57548  0.96131
EC68   EC   0.69162  0.92452  0.46131
EC69   EC   0.71131  0.17452  0.94162
EC70   EC   0.71131  0.32548  0.44162
EC71   EC   0.71131  0.67452  0.05838
EC72   EC   0.71131  0.82548  0.55838
EC73   EC   0.78869  0.17452  0.05838
EC74   EC   0.78869  0.32548  0.55838
EC75   EC   0.78869  0.67452  0.94162
EC76   EC   0.78869  0.82548  0.44162
EC77   EC   0.80838  0.07548  0.96131
EC78   EC   0.80838  0.42452  0.46131
EC79   EC   0.80838  0.57548  0.03869
EC80   EC   0.80838  0.92452  0.53869
EC81   EC   0.82548  0.05838  0.28869
EC82   EC   0.82548  0.44162  0.78869
EC83   EC   0.82548  0.55838  0.71131
EC84   EC   0.82548  0.94162  0.21131
EC85   EC   0.92452  0.03869  0.19162
EC86   EC   0.92452  0.46131  0.69162
EC87   EC   0.92452  0.53869  0.80838
EC88   EC   0.92452  0.96131  0.30838
EC89   EC   0.94162  0.21131  0.82548
EC90   EC   0.94162  0.28869  0.32548
EC91   EC   0.94162  0.71131  0.17452
EC92   EC   0.94162  0.78869  0.67452
EC93   EC   0.96131  0.19162  0.42452
EC94   EC   0.96131  0.30838  0.92452
EC95   EC   0.96131  0.69162  0.57548
EC96   EC   0.96131  0.80838  0.07548
E1    E   0.00000  0.25000  0.32548
E2    E   0.00000  0.25000  0.42452
E3    E   0.00000  0.25000  0.82548
E4    E   0.00000  0.25000  0.92452
E5    E   0.00000  0.75000  0.07548
E6    E   0.00000  0.75000  0.17452
E7    E   0.00000  0.75000  0.57548
E8    E   0.00000  0.75000  0.67452
E9    E   0.00825  0.04883  0.67482
E10   E   0.00825  0.45117  0.17482
E11   E   0.00825  0.54883  0.32518
E12   E   0.00825  0.95117  0.82518
E13   E   0.00985  0.20147  0.37500
E14   E   0.00985  0.29853  0.87500
E15   E   0.00985  0.70147  0.62500
E16   E   0.00985  0.79853  0.12500
E17   E   0.04853  0.24015  0.87500
E18   E   0.04853  0.25985  0.37500
E19   E   0.04853  0.74015  0.12500
E20   E   0.04853  0.75985  0.62500
E21   E   0.04883  0.17482  0.99175
E22   E   0.04883  0.32518  0.49175
E23   E   0.04883  0.67482  0.00825
E24   E   0.04883  0.82518  0.50825
E25   E   0.05897  0.10849  0.10849
E26   E   0.05897  0.39151  0.60849
E27   E   0.05897  0.60849  0.89151
E28   E   0.05897  0.89151  0.39151
E29   E   0.07518  0.20117  0.25825
E30   E   0.07518  0.29883  0.75825
E31   E   0.07518  0.70117  0.74175
E32   E   0.07518  0.79883  0.24175
E33   E   0.07548  0.00000  0.75000
E34   E   0.07548  0.12500  0.17452
E35   E   0.07548  0.17452  0.12500
E36   E   0.07548  0.32548  0.62500
E37   E   0.07548  0.37500  0.67452
E38   E   0.07548  0.50000  0.25000
E39   E   0.07548  0.62500  0.82548
E40   E   0.07548  0.67452  0.87500
E41   E   0.07548  0.82548  0.37500
E42   E   0.07548  0.87500  0.32548
E43   E   0.07548  0.12500  0.17452
E44   E   0.07548  0.17452  0.12500
E45   E   0.07548  0.32548  0.62500
E46   E   0.07548  0.37500  0.67452
E47   E   0.07548  0.62500  0.82548
E48   E   0.07548  0.67452  0.87500
E49   E   0.07548  0.82548  0.37500
E50   E   0.07548  0.87500  0.32548
E51   E   0.10849  0.05897  0.10849
E52   E   0.10849  0.10849  0.05897
E53   E   0.10849  0.39151  0.55897
E54   E   0.10849  0.44103  0.60849
E55   E   0.10849  0.55897  0.89151
E56   E   0.10849  0.60849  0.94103
E57   E   0.10849  0.89151  0.44103
E58   E   0.10849  0.94103  0.39151
E59   E   0.12500  0.00985  0.79853
E60   E   0.12500  0.04853  0.74015
E61   E   0.12500  0.07548  0.17452
E62   E   0.12500  0.07548  0.17452
E63   E   0.12500  0.17452  0.07548
E64   E   0.12500  0.17452  0.07548
E65   E   0.12500  0.32548  0.57548
E66   E   0.12500  0.42452  0.67452
E67   E   0.12500  0.45147  0.24015
E68   E   0.12500  0.49015  0.29853
E69   E   0.12500  0.50985  0.20147
E70   E   0.12500  0.54853  0.25985
E71   E   0.12500  0.57548  0.82548
E72   E   0.12500  0.67452  0.92452
E73   E   0.12500  0.82548  0.42452
E74   E   0.12500  0.92452  0.32548
E75   E   0.12500  0.95147  0.75985
E76   E   0.12500  0.99015  0.70147
E77   E   0.14151  0.14151  0.19103
E78   E   0.14151  0.19103  0.14151
E79   E   0.14151  0.30897  0.64151
E80   E   0.14151  0.35849  0.69103
E81   E   0.14151  0.64151  0.80897
E82   E   0.14151  0.69103  0.85849
E83   E   0.14151  0.80897  0.35849
E84   E   0.14151  0.85849  0.30897
E85   E   0.17452  0.00000  0.75000
E86   E   0.17452  0.07548  0.12500
E87   E   0.17452  0.07548  0.12500
E88   E   0.17452  0.12500  0.07548
E89   E   0.17452  0.12500  0.07548
E90   E   0.17452  0.37500  0.57548
E91   E   0.17452  0.42452  0.62500
E92   E   0.17452  0.50000  0.25000
E93   E   0.17452  0.57548  0.87500
E94   E   0.17452  0.62500  0.92452
E95   E   0.17452  0.87500  0.42452
E96   E   0.17452  0.92452  0.37500
E97   E   0.17482  0.00825  0.45117
E98   E   0.17482  0.49175  0.95117
E99   E   0.17482  0.50825  0.54883
E100  E   0.17482  0.99175  0.04883
E101  E   0.19103  0.14151  0.14151
E102  E   0.19103  0.35849  0.64151
E103  E   0.19103  0.64151  0.85849
E104  E   0.19103  0.85849  0.35849
E105  E   0.20117  0.24175  0.57518
E106  E   0.20117  0.25825  0.07518
E107  E   0.20117  0.74175  0.42482
E108  E   0.20117  0.75825  0.92482
E109  E   0.20147  0.12500  0.50985
E110  E   0.20147  0.37500  0.00985
E111  E   0.20147  0.62500  0.49015
E112  E   0.20147  0.87500  0.99015
E113  E   0.24015  0.12500  0.45147
E114  E   0.24015  0.37500  0.95147
E115  E   0.24015  0.62500  0.54853
E116  E   0.24015  0.87500  0.04853
E117  E   0.24175  0.07518  0.79883
E118  E   0.24175  0.42482  0.29883
E119  E   0.24175  0.57518  0.20117
E120  E   0.24175  0.92482  0.70117
E121  E   0.25000  0.07548  0.50000
E122  E   0.25000  0.17452  0.50000
E123  E   0.25000  0.32548  0.00000
E124  E   0.25000  0.42452  0.00000
E125  E   0.25000  0.57548  0.50000
E126  E   0.25000  0.67452  0.50000
E127  E   0.25000  0.82548  0.00000
E128  E   0.25000  0.92452  0.00000
E129  E   0.25825  0.07518  0.20117
E130  E   0.25825  0.42482  0.70117
E131  E   0.25825  0.57518  0.79883
E132  E   0.25825  0.92482  0.29883
E133  E   0.25985  0.12500  0.54853
E134  E   0.25985  0.37500  0.04853
E135  E   0.25985  0.62500  0.45147
E136  E   0.25985  0.87500  0.95147
E137  E   0.29853  0.12500  0.49015
E138  E   0.29853  0.37500  0.99015
E139  E   0.29853  0.62500  0.50985
E140  E   0.29853  0.87500  0.00985
E141  E   0.29883  0.24175  0.42482
E142  E   0.29883  0.25825  0.92482
E143  E   0.29883  0.74175  0.57518
E144  E   0.29883  0.75825  0.07518
E145  E   0.30897  0.14151  0.85849
E146  E   0.30897  0.35849  0.35849
E147  E   0.30897  0.64151  0.14151
E148  E   0.30897  0.85849  0.64151
E149  E   0.32518  0.00825  0.54883
E150  E   0.32518  0.49175  0.04883
E151  E   0.32518  0.50825  0.45117
E152  E   0.32518  0.99175  0.95117
E153  E   0.32548  0.00000  0.25000
E154  E   0.32548  0.07548  0.87500
E155  E   0.32548  0.07548  0.87500
E156  E   0.32548  0.12500  0.92452
E157  E   0.32548  0.37500  0.42452
E158  E   0.32548  0.42452  0.37500
E159  E   0.32548  0.50000  0.75000
E160  E   0.32548  0.57548  0.12500
E161  E   0.32548  0.62500  0.07548
E162  E   0.32548  0.62500  0.07548
E163  E   0.32548  0.87500  0.57548
E164  E   0.32548  0.92452  0.62500
E165  E   0.35849  0.14151  0.80897
E166  E   0.35849  0.19103  0.85849
E167  E   0.35849  0.30897  0.35849
E168  E   0.35849  0.35849  0.30897
E169  E   0.35849  0.64151  0.19103
E170  E   0.35849  0.69103  0.14151
E171  E   0.35849  0.80897  0.64151
E172  E   0.35849  0.85849  0.69103
E173  E   0.37500  0.00985  0.20147
E174  E   0.37500  0.04853  0.25985
E175  E   0.37500  0.07548  0.82548
E176  E   0.37500  0.07548  0.82548
E177  E   0.37500  0.17452  0.92452
E178  E   0.37500  0.32548  0.42452
E179  E   0.37500  0.42452  0.32548
E180  E   0.37500  0.45147  0.75985
E181  E   0.37500  0.49015  0.70147
E182  E   0.37500  0.50985  0.79853
E183  E   0.37500  0.54853  0.74015
E184  E   0.37500  0.57548  0.17452
E185  E   0.37500  0.67452  0.07548
E186  E   0.37500  0.67452  0.07548
E187  E   0.37500  0.82548  0.57548
E188  E   0.37500  0.92452  0.67452
E189  E   0.37500  0.95147  0.24015
E190  E   0.37500  0.99015  0.29853
E191  E   0.39151  0.05897  0.89151
E192  E   0.39151  0.10849  0.94103
E193  E   0.39151  0.39151  0.44103
E194  E   0.39151  0.44103  0.39151
E195  E   0.39151  0.55897  0.10849
E196  E   0.39151  0.60849  0.05897
E197  E   0.39151  0.89151  0.55897
E198  E   0.39151  0.94103  0.60849
E199  E   0.42452  0.00000  0.25000
E200  E   0.42452  0.12500  0.82548
E201  E   0.42452  0.17452  0.87500
E202  E   0.42452  0.32548  0.37500
E203  E   0.42452  0.37500  0.32548
E204  E   0.42452  0.50000  0.75000
E205  E   0.42452  0.62500  0.17452
E206  E   0.42452  0.67452  0.12500
E207  E   0.42452  0.82548  0.62500
E208  E   0.42452  0.87500  0.67452
E209  E   0.42482  0.20117  0.74175
E210  E   0.42482  0.29883  0.24175
E211  E   0.42482  0.70117  0.25825
E212  E   0.42482  0.79883  0.75825
E213  E   0.44103  0.10849  0.89151
E214  E   0.44103  0.39151  0.39151
E215  E   0.44103  0.60849  0.10849
E216  E   0.44103  0.89151  0.60849
E217  E   0.45117  0.17482  0.00825
E218  E   0.45117  0.32518  0.50825
E219  E   0.45117  0.67482  0.99175
E220  E   0.45117  0.82518  0.49175
E221  E   0.45147  0.24015  0.12500
E222  E   0.45147  0.25985  0.62500
E223  E   0.45147  0.74015  0.87500
E224  E   0.45147  0.75985  0.37500
E225  E   0.49015  0.20147  0.62500
E226  E   0.49015  0.29853  0.12500
E227  E   0.49015  0.70147  0.37500
E228  E   0.49015  0.79853  0.87500
E229  E   0.49175  0.04883  0.32518
E230  E   0.49175  0.45117  0.82518
E231  E   0.49175  0.54883  0.67482
E232  E   0.49175  0.95117  0.17482
E233  E   0.50000  0.25000  0.07548
E234  E   0.50000  0.25000  0.17452
E235  E   0.50000  0.25000  0.57548
E236  E   0.50000  0.25000  0.67452
E237  E   0.50000  0.75000  0.32548
E238  E   0.50000  0.75000  0.42452
E239  E   0.50000  0.75000  0.82548
E240  E   0.50000  0.75000  0.92452
E241  E   0.50825  0.04883  0.82518
E242  E   0.50825  0.45117  0.32518
E243  E   0.50825  0.54883  0.17482
E244  E   0.50825  0.95117  0.67482
E245  E   0.50985  0.20147  0.12500
E246  E   0.50985  0.29853  0.62500
E247  E   0.50985  0.70147  0.87500
E248  E   0.50985  0.79853  0.37500
E249  E   0.54853  0.24015  0.62500
E250  E   0.54853  0.25985  0.12500
E251  E   0.54853  0.74015  0.37500
E252  E   0.54853  0.75985  0.87500
E253  E   0.54883  0.17482  0.50825
E254  E   0.54883  0.32518  0.00825
E255  E   0.54883  0.67482  0.49175
E256  E   0.54883  0.82518  0.99175
E257  E   0.55897  0.10849  0.39151
E258  E   0.55897  0.39151  0.89151
E259  E   0.55897  0.60849  0.60849
E260  E   0.55897  0.89151  0.10849
E261  E   0.57518  0.20117  0.24175
E262  E   0.57518  0.29883  0.74175
E263  E   0.57518  0.70117  0.75825
E264  E   0.57518  0.79883  0.25825
E265  E   0.57548  0.00000  0.75000
E266  E   0.57548  0.12500  0.32548
E267  E   0.57548  0.17452  0.37500
E268  E   0.57548  0.32548  0.87500
E269  E   0.57548  0.37500  0.82548
E270  E   0.57548  0.50000  0.25000
E271  E   0.57548  0.62500  0.67452
E272  E   0.57548  0.67452  0.62500
E273  E   0.57548  0.82548  0.12500
E274  E   0.57548  0.87500  0.17452
E275  E   0.60849  0.05897  0.39151
E276  E   0.60849  0.10849  0.44103
E277  E   0.60849  0.39151  0.94103
E278  E   0.60849  0.44103  0.89151
E279  E   0.60849  0.55897  0.60849
E280  E   0.60849  0.60849  0.55897
E281  E   0.60849  0.89151  0.05897
E282  E   0.60849  0.94103  0.10849
E283  E   0.62500  0.00985  0.70147
E284  E   0.62500  0.04853  0.75985
E285  E   0.62500  0.07548  0.32548
E286  E   0.62500  0.07548  0.32548
E287  E   0.62500  0.17452  0.42452
E288  E   0.62500  0.32548  0.92452
E289  E   0.62500  0.42452  0.82548
E290  E   0.62500  0.45147  0.25985
E291  E   0.62500  0.49015  0.20147
E292  E   0.62500  0.50985  0.29853
E293  E   0.62500  0.54853  0.24015
E294  E   0.62500  0.57548  0.67452
E295  E   0.62500  0.67452  0.57548
E296  E   0.62500  0.82548  0.07548
E297  E   0.62500  0.82548  0.07548
E298  E   0.62500  0.92452  0.17452
E299  E   0.62500  0.95147  0.74015
E300  E   0.62500  0.99015  0.79853
E301  E   0.64151  0.14151  0.30897
E302  E   0.64151  0.19103  0.35849
E303  E   0.64151  0.30897  0.85849
E304  E   0.64151  0.35849  0.80897
E305  E   0.64151  0.64151  0.69103
E306  E   0.64151  0.69103  0.64151
E307  E   0.64151  0.80897  0.14151
E308  E   0.64151  0.85849  0.19103
E309  E   0.67452  0.00000  0.75000
E310  E   0.67452  0.07548  0.37500
E311  E   0.67452  0.07548  0.37500
E312  E   0.67452  0.12500  0.42452
E313  E   0.67452  0.37500  0.92452
E314  E   0.67452  0.42452  0.87500
E315  E   0.67452  0.50000  0.25000
E316  E   0.67452  0.57548  0.62500
E317  E   0.67452  0.62500  0.57548
E318  E   0.67452  0.87500  0.07548
E319  E   0.67452  0.87500  0.07548
E320  E   0.67452  0.92452  0.12500
E321  E   0.67482  0.00825  0.04883
E322  E   0.67482  0.49175  0.54883
E323  E   0.67482  0.50825  0.95117
E324  E   0.67482  0.99175  0.45117
E325  E   0.69103  0.14151  0.35849
E326  E   0.69103  0.35849  0.85849
E327  E   0.69103  0.64151  0.64151
E328  E   0.69103  0.85849  0.14151
E329  E   0.70117  0.24175  0.92482
E330  E   0.70117  0.25825  0.42482
E331  E   0.70117  0.74175  0.07518
E332  E   0.70117  0.75825  0.57518
E333  E   0.70147  0.12500  0.99015
E334  E   0.70147  0.37500  0.49015
E335  E   0.70147  0.62500  0.00985
E336  E   0.70147  0.87500  0.50985
E337  E   0.74015  0.12500  0.04853
E338  E   0.74015  0.37500  0.54853
E339  E   0.74015  0.62500  0.95147
E340  E   0.74015  0.87500  0.45147
E341  E   0.74175  0.07518  0.70117
E342  E   0.74175  0.42482  0.20117
E343  E   0.74175  0.57518  0.29883
E344  E   0.74175  0.92482  0.79883
E345  E   0.75000  0.07548  0.00000
E346  E   0.75000  0.17452  0.00000
E347  E   0.75000  0.32548  0.50000
E348  E   0.75000  0.42452  0.50000
E349  E   0.75000  0.57548  0.00000
E350  E   0.75000  0.67452  0.00000
E351  E   0.75000  0.82548  0.50000
E352  E   0.75000  0.92452  0.50000
E353  E   0.75825  0.07518  0.29883
E354  E   0.75825  0.42482  0.79883
E355  E   0.75825  0.57518  0.70117
E356  E   0.75825  0.92482  0.20117
E357  E   0.75985  0.12500  0.95147
E358  E   0.75985  0.37500  0.45147
E359  E   0.75985  0.62500  0.04853
E360  E   0.75985  0.87500  0.54853
E361  E   0.79853  0.12500  0.00985
E362  E   0.79853  0.37500  0.50985
E363  E   0.79853  0.62500  0.99015
E364  E   0.79853  0.87500  0.49015
E365  E   0.79883  0.24175  0.07518
E366  E   0.79883  0.25825  0.57518
E367  E   0.79883  0.74175  0.92482
E368  E   0.79883  0.75825  0.42482
E369  E   0.80897  0.14151  0.64151
E370  E   0.80897  0.35849  0.14151
E371  E   0.80897  0.64151  0.35849
E372  E   0.80897  0.85849  0.85849
E373  E   0.82518  0.00825  0.95117
E374  E   0.82518  0.49175  0.45117
E375  E   0.82518  0.50825  0.04883
E376  E   0.82518  0.99175  0.54883
E377  E   0.82548  0.00000  0.25000
E378  E   0.82548  0.07548  0.62500
E379  E   0.82548  0.07548  0.62500
E380  E   0.82548  0.12500  0.57548
E381  E   0.82548  0.37500  0.07548
E382  E   0.82548  0.37500  0.07548
E383  E   0.82548  0.42452  0.12500
E384  E   0.82548  0.50000  0.75000
E385  E   0.82548  0.57548  0.37500
E386  E   0.82548  0.62500  0.42452
E387  E   0.82548  0.87500  0.92452
E388  E   0.82548  0.92452  0.87500
E389  E   0.85849  0.14151  0.69103
E390  E   0.85849  0.19103  0.64151
E391  E   0.85849  0.30897  0.14151
E392  E   0.85849  0.35849  0.19103
E393  E   0.85849  0.64151  0.30897
E394  E   0.85849  0.69103  0.35849
E395  E   0.85849  0.80897  0.85849
E396  E   0.85849  0.85849  0.80897
E397  E   0.87500  0.00985  0.29853
E398  E   0.87500  0.04853  0.24015
E399  E   0.87500  0.07548  0.67452
E400  E   0.87500  0.07548  0.67452
E401  E   0.87500  0.17452  0.57548
E402  E   0.87500  0.32548  0.07548
E403  E   0.87500  0.32548  0.07548
E404  E   0.87500  0.42452  0.17452
E405  E   0.87500  0.45147  0.74015
E406  E   0.87500  0.49015  0.79853
E407  E   0.87500  0.50985  0.70147
E408  E   0.87500  0.54853  0.75985
E409  E   0.87500  0.57548  0.32548
E410  E   0.87500  0.67452  0.42452
E411  E   0.87500  0.82548  0.92452
E412  E   0.87500  0.92452  0.82548
E413  E   0.87500  0.95147  0.25985
E414  E   0.87500  0.99015  0.20147
E415  E   0.89151  0.05897  0.60849
E416  E   0.89151  0.10849  0.55897
E417  E   0.89151  0.39151  0.05897
E418  E   0.89151  0.44103  0.10849
E419  E   0.89151  0.55897  0.39151
E420  E   0.89151  0.60849  0.44103
E421  E   0.89151  0.89151  0.94103
E422  E   0.89151  0.94103  0.89151
E423  E   0.92452  0.00000  0.25000
E424  E   0.92452  0.12500  0.67452
E425  E   0.92452  0.17452  0.62500
E426  E   0.92452  0.32548  0.12500
E427  E   0.92452  0.37500  0.17452
E428  E   0.92452  0.50000  0.75000
E429  E   0.92452  0.62500  0.32548
E430  E   0.92452  0.67452  0.37500
E431  E   0.92452  0.82548  0.87500
E432  E   0.92452  0.87500  0.82548
E433  E   0.92482  0.20117  0.75825
E434  E   0.92482  0.29883  0.25825
E435  E   0.92482  0.70117  0.24175
E436  E   0.92482  0.79883  0.74175
E437  E   0.94103  0.10849  0.60849
E438  E   0.94103  0.39151  0.10849
E439  E   0.94103  0.60849  0.39151
E440  E   0.94103  0.89151  0.89151
E441  E   0.95117  0.17482  0.49175
E442  E   0.95117  0.32518  0.99175
E443  E   0.95117  0.67482  0.50825
E444  E   0.95117  0.82518  0.00825
E445  E   0.95147  0.24015  0.37500
E446  E   0.95147  0.25985  0.87500
E447  E   0.95147  0.74015  0.62500
E448  E   0.95147  0.75985  0.12500
E449  E   0.99015  0.20147  0.87500
E450  E   0.99015  0.29853  0.37500
E451  E   0.99015  0.70147  0.12500
E452  E   0.99015  0.79853  0.62500
E453  E   0.99175  0.04883  0.17482
E454  E   0.99175  0.45117  0.67482
E455  E   0.99175  0.54883  0.82518
E456  E   0.99175  0.95117  0.32518
loop_
