data_isx_Fddd:2  hall_number: 336, V_con: 4, EC_con: 4
_audit_creation_date              2025-03-06
_audit_creation_method            'MOFbuilder_1.0'
_symmetry_space_group_name_H-M    'P1'
_symmetry_Int_Tables_number       1
_symmetry_cell_setting            triclinic
loop_
_symmetry_equiv_pos_as_xyz
  x,y,z
_cell_length_a                    81.42060000000001
_cell_length_b                    23.464999999999996
_cell_length_c                    45.0193
_cell_angle_alpha                 90.0
_cell_angle_beta                  90.0
_cell_angle_gamma                 90.0
loop_
_atom_site_label
_atom_site_type_symbol
_atom_site_fract_x
_atom_site_fract_y
_atom_site_fract_z
V1    V   0.06685  0.05648  0.31679
V2    V   0.06685  0.19352  0.93321
V3    V   0.06685  0.55648  0.81679
V4    V   0.06685  0.69352  0.43321
V5    V   0.18315  0.05648  0.93321
V6    V   0.18315  0.19352  0.31679
V7    V   0.18315  0.55648  0.43321
V8    V   0.18315  0.69352  0.81679
V9    V   0.31685  0.30648  0.68321
V10   V   0.31685  0.44352  0.06679
V11   V   0.31685  0.80648  0.18321
V12   V   0.31685  0.94352  0.56679
V13   V   0.43315  0.30648  0.06679
V14   V   0.43315  0.44352  0.68321
V15   V   0.43315  0.80648  0.56679
V16   V   0.43315  0.94352  0.18321
V17   V   0.56685  0.05648  0.81679
V18   V   0.56685  0.19352  0.43321
V19   V   0.56685  0.55648  0.31679
V20   V   0.56685  0.69352  0.93321
V21   V   0.68315  0.05648  0.43321
V22   V   0.68315  0.19352  0.81679
V23   V   0.68315  0.55648  0.93321
V24   V   0.68315  0.69352  0.31679
V25   V   0.81685  0.30648  0.18321
V26   V   0.81685  0.44352  0.56679
V27   V   0.81685  0.80648  0.68321
V28   V   0.81685  0.94352  0.06679
V29   V   0.93315  0.30648  0.56679
V30   V   0.93315  0.44352  0.18321
V31   V   0.93315  0.80648  0.06679
V32   V   0.93315  0.94352  0.68321
EC1    EC   0.00813  0.12500  0.12500
EC2    EC   0.00813  0.62500  0.62500
EC3    EC   0.24187  0.12500  0.12500
EC4    EC   0.24187  0.62500  0.62500
EC5    EC   0.25813  0.37500  0.87500
EC6    EC   0.25813  0.87500  0.37500
EC7    EC   0.49187  0.37500  0.87500
EC8    EC   0.49187  0.87500  0.37500
EC9    EC   0.50813  0.12500  0.62500
EC10   EC   0.50813  0.62500  0.12500
EC11   EC   0.74187  0.12500  0.62500
EC12   EC   0.74187  0.62500  0.12500
EC13   EC   0.75813  0.37500  0.37500
EC14   EC   0.75813  0.87500  0.87500
EC15   EC   0.99187  0.37500  0.37500
EC16   EC   0.99187  0.87500  0.87500
E1    E   0.02936  0.03426  0.90410
E2    E   0.02936  0.21574  0.34590
E3    E   0.02936  0.53426  0.40410
E4    E   0.02936  0.71574  0.84590
E5    E   0.03749  0.09074  0.22090
E6    E   0.03749  0.15926  0.02910
E7    E   0.03749  0.59074  0.72090
E8    E   0.03749  0.65926  0.52910
E9    E   0.06685  0.37500  0.87500
E10   E   0.06685  0.87500  0.37500
E11   E   0.12500  0.12500  0.31679
E12   E   0.12500  0.12500  0.93321
E13   E   0.12500  0.62500  0.43321
E14   E   0.12500  0.62500  0.81679
E15   E   0.18315  0.37500  0.37500
E16   E   0.18315  0.87500  0.87500
E17   E   0.21251  0.09074  0.02910
E18   E   0.21251  0.15926  0.22090
E19   E   0.21251  0.59074  0.52910
E20   E   0.21251  0.65926  0.72090
E21   E   0.22064  0.03426  0.34590
E22   E   0.22064  0.21574  0.90410
E23   E   0.22064  0.53426  0.84590
E24   E   0.22064  0.71574  0.40410
E25   E   0.27936  0.28426  0.09590
E26   E   0.27936  0.46574  0.65410
E27   E   0.27936  0.78426  0.59590
E28   E   0.27936  0.96574  0.15410
E29   E   0.28749  0.34074  0.77910
E30   E   0.28749  0.40926  0.97090
E31   E   0.28749  0.84074  0.27910
E32   E   0.28749  0.90926  0.47090
E33   E   0.31685  0.12500  0.62500
E34   E   0.31685  0.62500  0.12500
E35   E   0.37500  0.37500  0.06679
E36   E   0.37500  0.37500  0.68321
E37   E   0.37500  0.87500  0.18321
E38   E   0.37500  0.87500  0.56679
E39   E   0.43315  0.12500  0.12500
E40   E   0.43315  0.62500  0.62500
E41   E   0.46251  0.34074  0.97090
E42   E   0.46251  0.40926  0.77910
E43   E   0.46251  0.84074  0.47090
E44   E   0.46251  0.90926  0.27910
E45   E   0.47064  0.28426  0.65410
E46   E   0.47064  0.46574  0.09590
E47   E   0.47064  0.78426  0.15410
E48   E   0.47064  0.96574  0.59590
E49   E   0.52936  0.03426  0.40410
E50   E   0.52936  0.21574  0.84590
E51   E   0.52936  0.53426  0.90410
E52   E   0.52936  0.71574  0.34590
E53   E   0.53749  0.09074  0.72090
E54   E   0.53749  0.15926  0.52910
E55   E   0.53749  0.59074  0.22090
E56   E   0.53749  0.65926  0.02910
E57   E   0.56685  0.37500  0.37500
E58   E   0.56685  0.87500  0.87500
E59   E   0.62500  0.12500  0.43321
E60   E   0.62500  0.12500  0.81679
E61   E   0.62500  0.62500  0.31679
E62   E   0.62500  0.62500  0.93321
E63   E   0.68315  0.37500  0.87500
E64   E   0.68315  0.87500  0.37500
E65   E   0.71251  0.09074  0.52910
E66   E   0.71251  0.15926  0.72090
E67   E   0.71251  0.59074  0.02910
E68   E   0.71251  0.65926  0.22090
E69   E   0.72064  0.03426  0.84590
E70   E   0.72064  0.21574  0.40410
E71   E   0.72064  0.53426  0.34590
E72   E   0.72064  0.71574  0.90410
E73   E   0.77936  0.28426  0.59590
E74   E   0.77936  0.46574  0.15410
E75   E   0.77936  0.78426  0.09590
E76   E   0.77936  0.96574  0.65410
E77   E   0.78749  0.34074  0.27910
E78   E   0.78749  0.40926  0.47090
E79   E   0.78749  0.84074  0.77910
E80   E   0.78749  0.90926  0.97090
E81   E   0.81685  0.12500  0.12500
E82   E   0.81685  0.62500  0.62500
E83   E   0.87500  0.37500  0.18321
E84   E   0.87500  0.37500  0.56679
E85   E   0.87500  0.87500  0.06679
E86   E   0.87500  0.87500  0.68321
E87   E   0.93315  0.12500  0.62500
E88   E   0.93315  0.62500  0.12500
E89   E   0.96251  0.34074  0.47090
E90   E   0.96251  0.40926  0.27910
E91   E   0.96251  0.84074  0.97090
E92   E   0.96251  0.90926  0.77910
E93   E   0.97064  0.28426  0.15410
E94   E   0.97064  0.46574  0.59590
E95   E   0.97064  0.78426  0.65410
E96   E   0.97064  0.96574  0.09590
loop_
