data_jst_Pa-3  hall_number: 501, V_con: 4, EC_con: 4
_audit_creation_date              2025-03-06
_audit_creation_method            'MOFbuilder_1.0'
_symmetry_space_group_name_H-M    'P1'
_symmetry_Int_Tables_number       1
_symmetry_cell_setting            triclinic
loop_
_symmetry_equiv_pos_as_xyz
  x,y,z
_cell_length_a                    52.95740000000001
_cell_length_b                    52.95740000000001
_cell_length_c                    52.95740000000001
_cell_angle_alpha                 90.0
_cell_angle_beta                  90.0
_cell_angle_gamma                 90.0
loop_
_atom_site_label
_atom_site_type_symbol
_atom_site_fract_x
_atom_site_fract_y
_atom_site_fract_z
V1    V   0.03325  0.61381  0.14697
V2    V   0.03325  0.88619  0.64697
V3    V   0.11381  0.14697  0.46675
V4    V   0.11381  0.35303  0.96675
V5    V   0.14697  0.03325  0.61381
V6    V   0.14697  0.46675  0.11381
V7    V   0.35303  0.53325  0.61381
V8    V   0.35303  0.96675  0.11381
V9    V   0.38619  0.64697  0.46675
V10   V   0.38619  0.85303  0.96675
V11   V   0.46675  0.11381  0.14697
V12   V   0.46675  0.38619  0.64697
V13   V   0.53325  0.61381  0.35303
V14   V   0.53325  0.88619  0.85303
V15   V   0.61381  0.14697  0.03325
V16   V   0.61381  0.35303  0.53325
V17   V   0.64697  0.03325  0.88619
V18   V   0.64697  0.46675  0.38619
V19   V   0.85303  0.53325  0.88619
V20   V   0.85303  0.96675  0.38619
V21   V   0.88619  0.64697  0.03325
V22   V   0.88619  0.85303  0.53325
V23   V   0.96675  0.11381  0.35303
V24   V   0.96675  0.38619  0.85303
EC1    EC   0.13204  0.16870  0.28007
EC2    EC   0.13204  0.33130  0.78007
EC3    EC   0.16870  0.21993  0.63204
EC4    EC   0.16870  0.28007  0.13204
EC5    EC   0.21993  0.63204  0.16870
EC6    EC   0.21993  0.86796  0.66870
EC7    EC   0.28007  0.13204  0.16870
EC8    EC   0.28007  0.36796  0.66870
EC9    EC   0.33130  0.71993  0.63204
EC10   EC   0.33130  0.78007  0.13204
EC11   EC   0.36796  0.66870  0.28007
EC12   EC   0.36796  0.83130  0.78007
EC13   EC   0.63204  0.16870  0.21993
EC14   EC   0.63204  0.33130  0.71993
EC15   EC   0.66870  0.21993  0.86796
EC16   EC   0.66870  0.28007  0.36796
EC17   EC   0.71993  0.63204  0.33130
EC18   EC   0.71993  0.86796  0.83130
EC19   EC   0.78007  0.13204  0.33130
EC20   EC   0.78007  0.36796  0.83130
EC21   EC   0.83130  0.71993  0.86796
EC22   EC   0.83130  0.78007  0.36796
EC23   EC   0.86796  0.66870  0.21993
EC24   EC   0.86796  0.83130  0.71993
E1    E   0.04028  0.13039  0.40989
E2    E   0.04028  0.36961  0.90989
E3    E   0.04940  0.14125  0.31655
E4    E   0.04940  0.35875  0.81655
E5    E   0.09011  0.54028  0.13039
E6    E   0.09011  0.95972  0.63039
E7    E   0.12293  0.15783  0.37341
E8    E   0.12293  0.34217  0.87341
E9    E   0.12659  0.62293  0.15783
E10   E   0.12659  0.87707  0.65783
E11   E   0.13039  0.09011  0.54028
E12   E   0.13039  0.40989  0.04028
E13   E   0.14125  0.18345  0.54940
E14   E   0.14125  0.31655  0.04940
E15   E   0.15037  0.22438  0.20605
E16   E   0.15037  0.27562  0.70605
E17   E   0.15783  0.12659  0.62293
E18   E   0.15783  0.37341  0.12293
E19   E   0.18345  0.54940  0.14125
E20   E   0.18345  0.95060  0.64125
E21   E   0.20605  0.15037  0.22438
E22   E   0.20605  0.34963  0.72438
E23   E   0.22438  0.20605  0.15037
E24   E   0.22438  0.29395  0.65037
E25   E   0.27562  0.70605  0.15037
E26   E   0.27562  0.79395  0.65037
E27   E   0.29395  0.65037  0.22438
E28   E   0.29395  0.84963  0.72438
E29   E   0.31655  0.04940  0.14125
E30   E   0.31655  0.45060  0.64125
E31   E   0.34217  0.62659  0.62293
E32   E   0.34217  0.87341  0.12293
E33   E   0.34963  0.72438  0.20605
E34   E   0.34963  0.77562  0.70605
E35   E   0.35875  0.68345  0.54940
E36   E   0.35875  0.81655  0.04940
E37   E   0.36961  0.59011  0.54028
E38   E   0.36961  0.90989  0.04028
E39   E   0.37341  0.12293  0.15783
E40   E   0.37341  0.37707  0.65783
E41   E   0.37707  0.65783  0.37341
E42   E   0.37707  0.84217  0.87341
E43   E   0.40989  0.04028  0.13039
E44   E   0.40989  0.45972  0.63039
E45   E   0.45060  0.64125  0.31655
E46   E   0.45060  0.85875  0.81655
E47   E   0.45972  0.63039  0.40989
E48   E   0.45972  0.86961  0.90989
E49   E   0.54028  0.13039  0.09011
E50   E   0.54028  0.36961  0.59011
E51   E   0.54940  0.14125  0.18345
E52   E   0.54940  0.35875  0.68345
E53   E   0.59011  0.54028  0.36961
E54   E   0.59011  0.95972  0.86961
E55   E   0.62293  0.15783  0.12659
E56   E   0.62293  0.34217  0.62659
E57   E   0.62659  0.62293  0.34217
E58   E   0.62659  0.87707  0.84217
E59   E   0.63039  0.09011  0.95972
E60   E   0.63039  0.40989  0.45972
E61   E   0.64125  0.18345  0.95060
E62   E   0.64125  0.31655  0.45060
E63   E   0.65037  0.22438  0.29395
E64   E   0.65037  0.27562  0.79395
E65   E   0.65783  0.12659  0.87707
E66   E   0.65783  0.37341  0.37707
E67   E   0.68345  0.54940  0.35875
E68   E   0.68345  0.95060  0.85875
E69   E   0.70605  0.15037  0.27562
E70   E   0.70605  0.34963  0.77562
E71   E   0.72438  0.20605  0.34963
E72   E   0.72438  0.29395  0.84963
E73   E   0.77562  0.70605  0.34963
E74   E   0.77562  0.79395  0.84963
E75   E   0.79395  0.65037  0.27562
E76   E   0.79395  0.84963  0.77562
E77   E   0.81655  0.04940  0.35875
E78   E   0.81655  0.45060  0.85875
E79   E   0.84217  0.62659  0.87707
E80   E   0.84217  0.87341  0.37707
E81   E   0.84963  0.72438  0.29395
E82   E   0.84963  0.77562  0.79395
E83   E   0.85875  0.68345  0.95060
E84   E   0.85875  0.81655  0.45060
E85   E   0.86961  0.59011  0.95972
E86   E   0.86961  0.90989  0.45972
E87   E   0.87341  0.12293  0.34217
E88   E   0.87341  0.37707  0.84217
E89   E   0.87707  0.65783  0.12659
E90   E   0.87707  0.84217  0.62659
E91   E   0.90989  0.04028  0.36961
E92   E   0.90989  0.45972  0.86961
E93   E   0.95060  0.64125  0.18345
E94   E   0.95060  0.85875  0.68345
E95   E   0.95972  0.63039  0.09011
E96   E   0.95972  0.86961  0.59011
loop_
