data_jus_Cmcm  hall_number: 298, V_con: 8, EC_con: 4
_audit_creation_date              2025-03-06
_audit_creation_method            'MOFbuilder_1.0'
_symmetry_space_group_name_H-M    'P1'
_symmetry_Int_Tables_number       1
_symmetry_cell_setting            triclinic
loop_
_symmetry_equiv_pos_as_xyz
  x,y,z
_cell_length_a                    24.2046
_cell_length_b                    30.5441
_cell_length_c                    18.0918
_cell_angle_alpha                 90.0
_cell_angle_beta                  90.0
_cell_angle_gamma                 90.0
loop_
_atom_site_label
_atom_site_type_symbol
_atom_site_fract_x
_atom_site_fract_y
_atom_site_fract_z
V1    V   0.00000  0.14949  0.25000
V2    V   0.00000  0.85051  0.75000
V3    V   0.50000  0.35051  0.75000
V4    V   0.50000  0.64949  0.25000
EC1    EC   0.17483  0.14710  0.75000
EC2    EC   0.17483  0.85290  0.25000
EC3    EC   0.32517  0.35290  0.25000
EC4    EC   0.32517  0.64710  0.75000
EC5    EC   0.67483  0.35290  0.25000
EC6    EC   0.67483  0.64710  0.75000
EC7    EC   0.82517  0.14710  0.75000
EC8    EC   0.82517  0.85290  0.25000
E1    E   0.08741  0.00119  0.25000
E2    E   0.08741  0.14829  0.00000
E3    E   0.08741  0.14829  0.50000
E4    E   0.08741  0.85171  0.00000
E5    E   0.08741  0.85171  0.50000
E6    E   0.08741  0.99881  0.75000
E7    E   0.16259  0.25119  0.25000
E8    E   0.16259  0.74881  0.75000
E9    E   0.33741  0.24881  0.75000
E10   E   0.33741  0.75119  0.25000
E11   E   0.41259  0.35171  0.00000
E12   E   0.41259  0.35171  0.50000
E13   E   0.41259  0.49881  0.75000
E14   E   0.41259  0.50119  0.25000
E15   E   0.41259  0.64829  0.00000
E16   E   0.41259  0.64829  0.50000
E17   E   0.58741  0.35171  0.00000
E18   E   0.58741  0.35171  0.50000
E19   E   0.58741  0.49881  0.75000
E20   E   0.58741  0.50119  0.25000
E21   E   0.58741  0.64829  0.00000
E22   E   0.58741  0.64829  0.50000
E23   E   0.66259  0.24881  0.75000
E24   E   0.66259  0.75119  0.25000
E25   E   0.83741  0.25119  0.25000
E26   E   0.83741  0.74881  0.75000
E27   E   0.91259  0.00119  0.25000
E28   E   0.91259  0.14829  0.00000
E29   E   0.91259  0.14829  0.50000
E30   E   0.91259  0.85171  0.00000
E31   E   0.91259  0.85171  0.50000
E32   E   0.91259  0.99881  0.75000
loop_
