data_kea_P43212  hall_number: 373, V_con: 4, EC_con: 4
_audit_creation_date              2025-03-06
_audit_creation_method            'MOFbuilder_1.0'
_symmetry_space_group_name_H-M    'P1'
_symmetry_Int_Tables_number       1
_symmetry_cell_setting            triclinic
loop_
_symmetry_equiv_pos_as_xyz
  x,y,z
_cell_length_a                    23.7894
_cell_length_b                    23.7894
_cell_length_c                    31.751299999999997
_cell_angle_alpha                 90.0
_cell_angle_beta                  90.0
_cell_angle_gamma                 90.0
loop_
_atom_site_label
_atom_site_type_symbol
_atom_site_fract_x
_atom_site_fract_y
_atom_site_fract_z
V1    V   0.04445  0.04445  0.50000
V2    V   0.45555  0.54445  0.25000
V3    V   0.54445  0.45555  0.75000
V4    V   0.95555  0.95555  0.00000
EC1    EC   0.09808  0.65186  0.39485
EC2    EC   0.15186  0.40192  0.64485
EC3    EC   0.34814  0.90192  0.10515
EC4    EC   0.40192  0.15186  0.35515
EC5    EC   0.59808  0.84814  0.85515
EC6    EC   0.65186  0.09808  0.60515
EC7    EC   0.84814  0.59808  0.14485
EC8    EC   0.90192  0.34814  0.89485
E1    E   0.02689  0.37503  0.76985
E2    E   0.07127  0.84816  0.44742
E3    E   0.09816  0.22319  0.57242
E4    E   0.12497  0.52689  0.51985
E5    E   0.15184  0.92873  0.05258
E6    E   0.22319  0.09816  0.42758
E7    E   0.27681  0.59816  0.32242
E8    E   0.34816  0.42873  0.69742
E9    E   0.37503  0.02689  0.23015
E10   E   0.40184  0.72319  0.17758
E11   E   0.42873  0.34816  0.30258
E12   E   0.47311  0.87503  0.98015
E13   E   0.52689  0.12497  0.48015
E14   E   0.57127  0.65184  0.80258
E15   E   0.59816  0.27681  0.67758
E16   E   0.62497  0.97311  0.73015
E17   E   0.65184  0.57127  0.19742
E18   E   0.72319  0.40184  0.82242
E19   E   0.77681  0.90184  0.92758
E20   E   0.84816  0.07127  0.55258
E21   E   0.87503  0.47311  0.01985
E22   E   0.90184  0.77681  0.07242
E23   E   0.92873  0.15184  0.94742
E24   E   0.97311  0.62497  0.26985
loop_
