data_kfi_Im-3m  hall_number: 529, V_con: 4
_audit_creation_date              2025-03-06
_audit_creation_method            'MOFbuilder_1.0'
_symmetry_space_group_name_H-M    'P1'
_symmetry_Int_Tables_number       1
_symmetry_cell_setting            triclinic
loop_
_symmetry_equiv_pos_as_xyz
  x,y,z
_cell_length_a                    59.831399999999995
_cell_length_b                    59.831399999999995
_cell_length_c                    59.831399999999995
_cell_angle_alpha                 90.0
_cell_angle_beta                  90.0
_cell_angle_gamma                 90.0
loop_
_atom_site_label
_atom_site_type_symbol
_atom_site_fract_x
_atom_site_fract_y
_atom_site_fract_z
V1    V   0.08357  0.20175  0.31994
V2    V   0.08357  0.20175  0.68006
V3    V   0.08357  0.31994  0.20175
V4    V   0.08357  0.31994  0.79825
V5    V   0.08357  0.68006  0.20175
V6    V   0.08357  0.68006  0.79825
V7    V   0.08357  0.79825  0.31994
V8    V   0.08357  0.79825  0.68006
V9    V   0.18006  0.29825  0.41643
V10   V   0.18006  0.29825  0.58357
V11   V   0.18006  0.41643  0.29825
V12   V   0.18006  0.41643  0.70175
V13   V   0.18006  0.58357  0.29825
V14   V   0.18006  0.58357  0.70175
V15   V   0.18006  0.70175  0.41643
V16   V   0.18006  0.70175  0.58357
V17   V   0.20175  0.08357  0.31994
V18   V   0.20175  0.08357  0.68006
V19   V   0.20175  0.31994  0.08357
V20   V   0.20175  0.31994  0.91643
V21   V   0.20175  0.68006  0.08357
V22   V   0.20175  0.68006  0.91643
V23   V   0.20175  0.91643  0.31994
V24   V   0.20175  0.91643  0.68006
V25   V   0.29825  0.18006  0.41643
V26   V   0.29825  0.18006  0.58357
V27   V   0.29825  0.41643  0.18006
V28   V   0.29825  0.41643  0.81994
V29   V   0.29825  0.58357  0.18006
V30   V   0.29825  0.58357  0.81994
V31   V   0.29825  0.81994  0.41643
V32   V   0.29825  0.81994  0.58357
V33   V   0.31994  0.08357  0.20175
V34   V   0.31994  0.08357  0.79825
V35   V   0.31994  0.20175  0.08357
V36   V   0.31994  0.20175  0.91643
V37   V   0.31994  0.79825  0.08357
V38   V   0.31994  0.79825  0.91643
V39   V   0.31994  0.91643  0.20175
V40   V   0.31994  0.91643  0.79825
V41   V   0.41643  0.18006  0.29825
V42   V   0.41643  0.18006  0.70175
V43   V   0.41643  0.29825  0.18006
V44   V   0.41643  0.29825  0.81994
V45   V   0.41643  0.70175  0.18006
V46   V   0.41643  0.70175  0.81994
V47   V   0.41643  0.81994  0.29825
V48   V   0.41643  0.81994  0.70175
V49   V   0.58357  0.18006  0.29825
V50   V   0.58357  0.18006  0.70175
V51   V   0.58357  0.29825  0.18006
V52   V   0.58357  0.29825  0.81994
V53   V   0.58357  0.70175  0.18006
V54   V   0.58357  0.70175  0.81994
V55   V   0.58357  0.81994  0.29825
V56   V   0.58357  0.81994  0.70175
V57   V   0.68006  0.08357  0.20175
V58   V   0.68006  0.08357  0.79825
V59   V   0.68006  0.20175  0.08357
V60   V   0.68006  0.20175  0.91643
V61   V   0.68006  0.79825  0.08357
V62   V   0.68006  0.79825  0.91643
V63   V   0.68006  0.91643  0.20175
V64   V   0.68006  0.91643  0.79825
V65   V   0.70175  0.18006  0.41643
V66   V   0.70175  0.18006  0.58357
V67   V   0.70175  0.41643  0.18006
V68   V   0.70175  0.41643  0.81994
V69   V   0.70175  0.58357  0.18006
V70   V   0.70175  0.58357  0.81994
V71   V   0.70175  0.81994  0.41643
V72   V   0.70175  0.81994  0.58357
V73   V   0.79825  0.08357  0.31994
V74   V   0.79825  0.08357  0.68006
V75   V   0.79825  0.31994  0.08357
V76   V   0.79825  0.31994  0.91643
V77   V   0.79825  0.68006  0.08357
V78   V   0.79825  0.68006  0.91643
V79   V   0.79825  0.91643  0.31994
V80   V   0.79825  0.91643  0.68006
V81   V   0.81994  0.29825  0.41643
V82   V   0.81994  0.29825  0.58357
V83   V   0.81994  0.41643  0.29825
V84   V   0.81994  0.41643  0.70175
V85   V   0.81994  0.58357  0.29825
V86   V   0.81994  0.58357  0.70175
V87   V   0.81994  0.70175  0.41643
V88   V   0.81994  0.70175  0.58357
V89   V   0.91643  0.20175  0.31994
V90   V   0.91643  0.20175  0.68006
V91   V   0.91643  0.31994  0.20175
V92   V   0.91643  0.31994  0.79825
V93   V   0.91643  0.68006  0.20175
V94   V   0.91643  0.68006  0.79825
V95   V   0.91643  0.79825  0.31994
V96   V   0.91643  0.79825  0.68006
E1    E   0.00000  0.20175  0.31994
E2    E   0.00000  0.20175  0.68006
E3    E   0.00000  0.31994  0.20175
E4    E   0.00000  0.31994  0.79825
E5    E   0.00000  0.68006  0.20175
E6    E   0.00000  0.68006  0.79825
E7    E   0.00000  0.79825  0.31994
E8    E   0.00000  0.79825  0.68006
E9    E   0.08357  0.26084  0.26084
E10   E   0.08357  0.26084  0.73916
E11   E   0.08357  0.73916  0.26084
E12   E   0.08357  0.73916  0.73916
E13   E   0.13182  0.25000  0.36818
E14   E   0.13182  0.25000  0.63182
E15   E   0.13182  0.36818  0.25000
E16   E   0.13182  0.36818  0.75000
E17   E   0.13182  0.63182  0.25000
E18   E   0.13182  0.63182  0.75000
E19   E   0.13182  0.75000  0.36818
E20   E   0.13182  0.75000  0.63182
E21   E   0.14266  0.14266  0.31994
E22   E   0.14266  0.14266  0.68006
E23   E   0.14266  0.31994  0.14266
E24   E   0.14266  0.31994  0.85734
E25   E   0.14266  0.68006  0.14266
E26   E   0.14266  0.68006  0.85734
E27   E   0.14266  0.85734  0.31994
E28   E   0.14266  0.85734  0.68006
E29   E   0.18006  0.29825  0.50000
E30   E   0.18006  0.35734  0.35734
E31   E   0.18006  0.35734  0.64266
E32   E   0.18006  0.50000  0.29825
E33   E   0.18006  0.50000  0.70175
E34   E   0.18006  0.64266  0.35734
E35   E   0.18006  0.64266  0.64266
E36   E   0.18006  0.70175  0.50000
E37   E   0.20175  0.00000  0.31994
E38   E   0.20175  0.00000  0.68006
E39   E   0.20175  0.31994  0.00000
E40   E   0.20175  0.68006  0.00000
E41   E   0.23916  0.23916  0.41643
E42   E   0.23916  0.23916  0.58357
E43   E   0.23916  0.41643  0.23916
E44   E   0.23916  0.41643  0.76084
E45   E   0.23916  0.58357  0.23916
E46   E   0.23916  0.58357  0.76084
E47   E   0.23916  0.76084  0.41643
E48   E   0.23916  0.76084  0.58357
E49   E   0.25000  0.13182  0.36818
E50   E   0.25000  0.13182  0.63182
E51   E   0.25000  0.36818  0.13182
E52   E   0.25000  0.36818  0.86818
E53   E   0.25000  0.63182  0.13182
E54   E   0.25000  0.63182  0.86818
E55   E   0.25000  0.86818  0.36818
E56   E   0.25000  0.86818  0.63182
E57   E   0.26084  0.08357  0.26084
E58   E   0.26084  0.08357  0.73916
E59   E   0.26084  0.26084  0.08357
E60   E   0.26084  0.26084  0.91643
E61   E   0.26084  0.73916  0.08357
E62   E   0.26084  0.73916  0.91643
E63   E   0.26084  0.91643  0.26084
E64   E   0.26084  0.91643  0.73916
E65   E   0.29825  0.18006  0.50000
E66   E   0.29825  0.50000  0.18006
E67   E   0.29825  0.50000  0.81994
E68   E   0.29825  0.81994  0.50000
E69   E   0.31994  0.00000  0.20175
E70   E   0.31994  0.00000  0.79825
E71   E   0.31994  0.14266  0.14266
E72   E   0.31994  0.14266  0.85734
E73   E   0.31994  0.20175  0.00000
E74   E   0.31994  0.79825  0.00000
E75   E   0.31994  0.85734  0.14266
E76   E   0.31994  0.85734  0.85734
E77   E   0.35734  0.18006  0.35734
E78   E   0.35734  0.18006  0.64266
E79   E   0.35734  0.35734  0.18006
E80   E   0.35734  0.35734  0.81994
E81   E   0.35734  0.64266  0.18006
E82   E   0.35734  0.64266  0.81994
E83   E   0.35734  0.81994  0.35734
E84   E   0.35734  0.81994  0.64266
E85   E   0.36818  0.13182  0.25000
E86   E   0.36818  0.13182  0.75000
E87   E   0.36818  0.25000  0.13182
E88   E   0.36818  0.25000  0.86818
E89   E   0.36818  0.75000  0.13182
E90   E   0.36818  0.75000  0.86818
E91   E   0.36818  0.86818  0.25000
E92   E   0.36818  0.86818  0.75000
E93   E   0.41643  0.23916  0.23916
E94   E   0.41643  0.23916  0.76084
E95   E   0.41643  0.76084  0.23916
E96   E   0.41643  0.76084  0.76084
E97   E   0.50000  0.18006  0.29825
E98   E   0.50000  0.18006  0.70175
E99   E   0.50000  0.29825  0.18006
E100  E   0.50000  0.29825  0.81994
E101  E   0.50000  0.70175  0.18006
E102  E   0.50000  0.70175  0.81994
E103  E   0.50000  0.81994  0.29825
E104  E   0.50000  0.81994  0.70175
E105  E   0.58357  0.23916  0.23916
E106  E   0.58357  0.23916  0.76084
E107  E   0.58357  0.76084  0.23916
E108  E   0.58357  0.76084  0.76084
E109  E   0.63182  0.13182  0.25000
E110  E   0.63182  0.13182  0.75000
E111  E   0.63182  0.25000  0.13182
E112  E   0.63182  0.25000  0.86818
E113  E   0.63182  0.75000  0.13182
E114  E   0.63182  0.75000  0.86818
E115  E   0.63182  0.86818  0.25000
E116  E   0.63182  0.86818  0.75000
E117  E   0.64266  0.18006  0.35734
E118  E   0.64266  0.18006  0.64266
E119  E   0.64266  0.35734  0.18006
E120  E   0.64266  0.35734  0.81994
E121  E   0.64266  0.64266  0.18006
E122  E   0.64266  0.64266  0.81994
E123  E   0.64266  0.81994  0.35734
E124  E   0.64266  0.81994  0.64266
E125  E   0.68006  0.00000  0.20175
E126  E   0.68006  0.00000  0.79825
E127  E   0.68006  0.14266  0.14266
E128  E   0.68006  0.14266  0.85734
E129  E   0.68006  0.20175  0.00000
E130  E   0.68006  0.79825  0.00000
E131  E   0.68006  0.85734  0.14266
E132  E   0.68006  0.85734  0.85734
E133  E   0.70175  0.18006  0.50000
E134  E   0.70175  0.50000  0.18006
E135  E   0.70175  0.50000  0.81994
E136  E   0.70175  0.81994  0.50000
E137  E   0.73916  0.08357  0.26084
E138  E   0.73916  0.08357  0.73916
E139  E   0.73916  0.26084  0.08357
E140  E   0.73916  0.26084  0.91643
E141  E   0.73916  0.73916  0.08357
E142  E   0.73916  0.73916  0.91643
E143  E   0.73916  0.91643  0.26084
E144  E   0.73916  0.91643  0.73916
E145  E   0.75000  0.13182  0.36818
E146  E   0.75000  0.13182  0.63182
E147  E   0.75000  0.36818  0.13182
E148  E   0.75000  0.36818  0.86818
E149  E   0.75000  0.63182  0.13182
E150  E   0.75000  0.63182  0.86818
E151  E   0.75000  0.86818  0.36818
E152  E   0.75000  0.86818  0.63182
E153  E   0.76084  0.23916  0.41643
E154  E   0.76084  0.23916  0.58357
E155  E   0.76084  0.41643  0.23916
E156  E   0.76084  0.41643  0.76084
E157  E   0.76084  0.58357  0.23916
E158  E   0.76084  0.58357  0.76084
E159  E   0.76084  0.76084  0.41643
E160  E   0.76084  0.76084  0.58357
E161  E   0.79825  0.00000  0.31994
E162  E   0.79825  0.00000  0.68006
E163  E   0.79825  0.31994  0.00000
E164  E   0.79825  0.68006  0.00000
E165  E   0.81994  0.29825  0.50000
E166  E   0.81994  0.35734  0.35734
E167  E   0.81994  0.35734  0.64266
E168  E   0.81994  0.50000  0.29825
E169  E   0.81994  0.50000  0.70175
E170  E   0.81994  0.64266  0.35734
E171  E   0.81994  0.64266  0.64266
E172  E   0.81994  0.70175  0.50000
E173  E   0.85734  0.14266  0.31994
E174  E   0.85734  0.14266  0.68006
E175  E   0.85734  0.31994  0.14266
E176  E   0.85734  0.31994  0.85734
E177  E   0.85734  0.68006  0.14266
E178  E   0.85734  0.68006  0.85734
E179  E   0.85734  0.85734  0.31994
E180  E   0.85734  0.85734  0.68006
E181  E   0.86818  0.25000  0.36818
E182  E   0.86818  0.25000  0.63182
E183  E   0.86818  0.36818  0.25000
E184  E   0.86818  0.36818  0.75000
E185  E   0.86818  0.63182  0.25000
E186  E   0.86818  0.63182  0.75000
E187  E   0.86818  0.75000  0.36818
E188  E   0.86818  0.75000  0.63182
E189  E   0.91643  0.26084  0.26084
E190  E   0.91643  0.26084  0.73916
E191  E   0.91643  0.73916  0.26084
E192  E   0.91643  0.73916  0.73916
loop_
