data_kpl_Im-3m  hall_number: 529, V_con: 8, EC_con: 6
_audit_creation_date              2025-03-06
_audit_creation_method            'MOFbuilder_1.0'
_symmetry_space_group_name_H-M    'P1'
_symmetry_Int_Tables_number       1
_symmetry_cell_setting            triclinic
loop_
_symmetry_equiv_pos_as_xyz
  x,y,z
_cell_length_a                    28.294999999999998
_cell_length_b                    28.294999999999998
_cell_length_c                    28.294999999999998
_cell_angle_alpha                 90.0
_cell_angle_beta                  90.0
_cell_angle_gamma                 90.0
loop_
_atom_site_label
_atom_site_type_symbol
_atom_site_fract_x
_atom_site_fract_y
_atom_site_fract_z
V1    V   0.00000  0.00000  0.24972
V2    V   0.00000  0.00000  0.75028
V3    V   0.00000  0.24972  0.00000
V4    V   0.00000  0.75028  0.00000
V5    V   0.24972  0.00000  0.00000
V6    V   0.25028  0.50000  0.50000
V7    V   0.50000  0.25028  0.50000
V8    V   0.50000  0.50000  0.25028
V9    V   0.50000  0.50000  0.74972
V10   V   0.50000  0.74972  0.50000
V11   V   0.74972  0.50000  0.50000
V12   V   0.75028  0.00000  0.00000
EC1    EC   0.25000  0.25000  0.25000
EC2    EC   0.25000  0.25000  0.75000
EC3    EC   0.25000  0.75000  0.25000
EC4    EC   0.25000  0.75000  0.75000
EC5    EC   0.75000  0.25000  0.25000
EC6    EC   0.75000  0.25000  0.75000
EC7    EC   0.75000  0.75000  0.25000
EC8    EC   0.75000  0.75000  0.75000
E1    E   0.00000  0.12486  0.12486
E2    E   0.00000  0.12486  0.87514
E3    E   0.00000  0.87514  0.12486
E4    E   0.00000  0.87514  0.87514
E5    E   0.12486  0.00000  0.12486
E6    E   0.12486  0.00000  0.87514
E7    E   0.12486  0.12486  0.00000
E8    E   0.12486  0.87514  0.00000
E9    E   0.12500  0.12500  0.24986
E10   E   0.12500  0.12500  0.75014
E11   E   0.12500  0.24986  0.12500
E12   E   0.12500  0.24986  0.87500
E13   E   0.12500  0.75014  0.12500
E14   E   0.12500  0.75014  0.87500
E15   E   0.12500  0.87500  0.24986
E16   E   0.12500  0.87500  0.75014
E17   E   0.24986  0.12500  0.12500
E18   E   0.24986  0.12500  0.87500
E19   E   0.24986  0.87500  0.12500
E20   E   0.24986  0.87500  0.87500
E21   E   0.25014  0.37500  0.37500
E22   E   0.25014  0.37500  0.62500
E23   E   0.25014  0.62500  0.37500
E24   E   0.25014  0.62500  0.62500
E25   E   0.37500  0.25014  0.37500
E26   E   0.37500  0.25014  0.62500
E27   E   0.37500  0.37500  0.25014
E28   E   0.37500  0.37500  0.74986
E29   E   0.37500  0.62500  0.25014
E30   E   0.37500  0.62500  0.74986
E31   E   0.37500  0.74986  0.37500
E32   E   0.37500  0.74986  0.62500
E33   E   0.37514  0.37514  0.50000
E34   E   0.37514  0.50000  0.37514
E35   E   0.37514  0.50000  0.62486
E36   E   0.37514  0.62486  0.50000
E37   E   0.50000  0.37514  0.37514
E38   E   0.50000  0.37514  0.62486
E39   E   0.50000  0.62486  0.37514
E40   E   0.50000  0.62486  0.62486
E41   E   0.62486  0.37514  0.50000
E42   E   0.62486  0.50000  0.37514
E43   E   0.62486  0.50000  0.62486
E44   E   0.62486  0.62486  0.50000
E45   E   0.62500  0.25014  0.37500
E46   E   0.62500  0.25014  0.62500
E47   E   0.62500  0.37500  0.25014
E48   E   0.62500  0.37500  0.74986
E49   E   0.62500  0.62500  0.25014
E50   E   0.62500  0.62500  0.74986
E51   E   0.62500  0.74986  0.37500
E52   E   0.62500  0.74986  0.62500
E53   E   0.74986  0.37500  0.37500
E54   E   0.74986  0.37500  0.62500
E55   E   0.74986  0.62500  0.37500
E56   E   0.74986  0.62500  0.62500
E57   E   0.75014  0.12500  0.12500
E58   E   0.75014  0.12500  0.87500
E59   E   0.75014  0.87500  0.12500
E60   E   0.75014  0.87500  0.87500
E61   E   0.87500  0.12500  0.24986
E62   E   0.87500  0.12500  0.75014
E63   E   0.87500  0.24986  0.12500
E64   E   0.87500  0.24986  0.87500
E65   E   0.87500  0.75014  0.12500
E66   E   0.87500  0.75014  0.87500
E67   E   0.87500  0.87500  0.24986
E68   E   0.87500  0.87500  0.75014
E69   E   0.87514  0.00000  0.12486
E70   E   0.87514  0.00000  0.87514
E71   E   0.87514  0.12486  0.00000
E72   E   0.87514  0.87514  0.00000
loop_
