data_lcs-e_Ia-3d  hall_number: 530, V_con: 6
_audit_creation_date              2025-03-06
_audit_creation_method            'MOFbuilder_1.0'
_symmetry_space_group_name_H-M    'P1'
_symmetry_Int_Tables_number       1
_symmetry_cell_setting            triclinic
loop_
_symmetry_equiv_pos_as_xyz
  x,y,z
_cell_length_a                    38.637100000000004
_cell_length_b                    38.637100000000004
_cell_length_c                    38.637100000000004
_cell_angle_alpha                 90.0
_cell_angle_beta                  90.0
_cell_angle_gamma                 90.0
loop_
_atom_site_label
_atom_site_type_symbol
_atom_site_fract_x
_atom_site_fract_y
_atom_site_fract_z
V1    V   0.03349  0.12500  0.78349
V2    V   0.03349  0.37500  0.28349
V3    V   0.03349  0.62500  0.21651
V4    V   0.03349  0.87500  0.71651
V5    V   0.03349  0.12500  0.78349
V6    V   0.03349  0.37500  0.28349
V7    V   0.03349  0.62500  0.21651
V8    V   0.03349  0.87500  0.71651
V9    V   0.12500  0.21651  0.46651
V10   V   0.12500  0.21651  0.46651
V11   V   0.12500  0.28349  0.96651
V12   V   0.12500  0.71651  0.53349
V13   V   0.12500  0.78349  0.03349
V14   V   0.12500  0.78349  0.03349
V15   V   0.21651  0.03349  0.62500
V16   V   0.21651  0.46651  0.12500
V17   V   0.21651  0.53349  0.37500
V18   V   0.21651  0.96651  0.87500
V19   V   0.21651  0.03349  0.62500
V20   V   0.21651  0.46651  0.12500
V21   V   0.21651  0.53349  0.37500
V22   V   0.21651  0.96651  0.87500
V23   V   0.28349  0.03349  0.37500
V24   V   0.28349  0.03349  0.37500
V25   V   0.28349  0.46651  0.87500
V26   V   0.28349  0.53349  0.62500
V27   V   0.28349  0.96651  0.12500
V28   V   0.37500  0.21651  0.53349
V29   V   0.37500  0.21651  0.53349
V30   V   0.37500  0.28349  0.03349
V31   V   0.37500  0.28349  0.03349
V32   V   0.37500  0.71651  0.46651
V33   V   0.37500  0.78349  0.96651
V34   V   0.46651  0.12500  0.21651
V35   V   0.46651  0.12500  0.21651
V36   V   0.46651  0.37500  0.71651
V37   V   0.46651  0.62500  0.78349
V38   V   0.46651  0.87500  0.28349
V39   V   0.53349  0.12500  0.71651
V40   V   0.53349  0.37500  0.21651
V41   V   0.53349  0.37500  0.21651
V42   V   0.53349  0.62500  0.28349
V43   V   0.53349  0.87500  0.78349
V44   V   0.62500  0.21651  0.03349
V45   V   0.62500  0.21651  0.03349
V46   V   0.62500  0.28349  0.53349
V47   V   0.62500  0.71651  0.96651
V48   V   0.62500  0.78349  0.46651
V49   V   0.71651  0.03349  0.87500
V50   V   0.71651  0.03349  0.87500
V51   V   0.71651  0.46651  0.37500
V52   V   0.71651  0.53349  0.12500
V53   V   0.71651  0.96651  0.62500
V54   V   0.78349  0.03349  0.12500
V55   V   0.78349  0.03349  0.12500
V56   V   0.78349  0.46651  0.62500
V57   V   0.78349  0.53349  0.87500
V58   V   0.78349  0.96651  0.37500
V59   V   0.87500  0.21651  0.96651
V60   V   0.87500  0.21651  0.96651
V61   V   0.87500  0.28349  0.46651
V62   V   0.87500  0.71651  0.03349
V63   V   0.87500  0.71651  0.03349
V64   V   0.87500  0.78349  0.53349
V65   V   0.96651  0.12500  0.28349
V66   V   0.96651  0.37500  0.78349
V67   V   0.96651  0.62500  0.71651
V68   V   0.96651  0.87500  0.21651
V69   V   0.96651  0.87500  0.21651
E1    E   0.00000  0.25000  0.28349
E2    E   0.00000  0.25000  0.46651
E3    E   0.00000  0.25000  0.78349
E4    E   0.00000  0.25000  0.96651
E5    E   0.00000  0.75000  0.03349
E6    E   0.00000  0.75000  0.21651
E7    E   0.00000  0.75000  0.53349
E8    E   0.00000  0.75000  0.71651
E9    E   0.03349  0.00000  0.75000
E10   E   0.03349  0.50000  0.25000
E11   E   0.04575  0.17075  0.37500
E12   E   0.04575  0.32925  0.87500
E13   E   0.04575  0.67075  0.62500
E14   E   0.04575  0.82925  0.12500
E15   E   0.07925  0.20425  0.87500
E16   E   0.07925  0.29575  0.37500
E17   E   0.07925  0.70425  0.12500
E18   E   0.07925  0.79575  0.62500
E19   E   0.12500  0.04575  0.82925
E20   E   0.12500  0.07925  0.70425
E21   E   0.12500  0.42075  0.20425
E22   E   0.12500  0.45425  0.32925
E23   E   0.12500  0.54575  0.17075
E24   E   0.12500  0.57925  0.29575
E25   E   0.12500  0.92075  0.79575
E26   E   0.12500  0.95425  0.67075
E27   E   0.17075  0.12500  0.54575
E28   E   0.17075  0.37500  0.04575
E29   E   0.17075  0.62500  0.45425
E30   E   0.17075  0.87500  0.95425
E31   E   0.20425  0.12500  0.42075
E32   E   0.20425  0.37500  0.92075
E33   E   0.20425  0.62500  0.57925
E34   E   0.20425  0.87500  0.07925
E35   E   0.21651  0.00000  0.75000
E36   E   0.21651  0.50000  0.25000
E37   E   0.25000  0.03349  0.50000
E38   E   0.25000  0.21651  0.50000
E39   E   0.25000  0.28349  0.00000
E40   E   0.25000  0.46651  0.00000
E41   E   0.25000  0.53349  0.50000
E42   E   0.25000  0.71651  0.50000
E43   E   0.25000  0.78349  0.00000
E44   E   0.25000  0.96651  0.00000
E45   E   0.28349  0.00000  0.25000
E46   E   0.28349  0.50000  0.75000
E47   E   0.29575  0.12500  0.57925
E48   E   0.29575  0.37500  0.07925
E49   E   0.29575  0.62500  0.42075
E50   E   0.29575  0.87500  0.92075
E51   E   0.32925  0.12500  0.45425
E52   E   0.32925  0.37500  0.95425
E53   E   0.32925  0.62500  0.54575
E54   E   0.32925  0.87500  0.04575
E55   E   0.37500  0.04575  0.17075
E56   E   0.37500  0.07925  0.29575
E57   E   0.37500  0.42075  0.79575
E58   E   0.37500  0.45425  0.67075
E59   E   0.37500  0.54575  0.82925
E60   E   0.37500  0.57925  0.70425
E61   E   0.37500  0.92075  0.20425
E62   E   0.37500  0.95425  0.32925
E63   E   0.42075  0.20425  0.12500
E64   E   0.42075  0.29575  0.62500
E65   E   0.42075  0.70425  0.87500
E66   E   0.42075  0.79575  0.37500
E67   E   0.45425  0.17075  0.62500
E68   E   0.45425  0.32925  0.12500
E69   E   0.45425  0.67075  0.37500
E70   E   0.45425  0.82925  0.87500
E71   E   0.46651  0.00000  0.25000
E72   E   0.46651  0.50000  0.75000
E73   E   0.50000  0.25000  0.03349
E74   E   0.50000  0.25000  0.21651
E75   E   0.50000  0.25000  0.53349
E76   E   0.50000  0.25000  0.71651
E77   E   0.50000  0.75000  0.28349
E78   E   0.50000  0.75000  0.46651
E79   E   0.50000  0.75000  0.78349
E80   E   0.50000  0.75000  0.96651
E81   E   0.53349  0.00000  0.75000
E82   E   0.53349  0.50000  0.25000
E83   E   0.54575  0.17075  0.12500
E84   E   0.54575  0.32925  0.62500
E85   E   0.54575  0.67075  0.87500
E86   E   0.54575  0.82925  0.37500
E87   E   0.57925  0.20425  0.62500
E88   E   0.57925  0.29575  0.12500
E89   E   0.57925  0.70425  0.37500
E90   E   0.57925  0.79575  0.87500
E91   E   0.62500  0.04575  0.67075
E92   E   0.62500  0.07925  0.79575
E93   E   0.62500  0.42075  0.29575
E94   E   0.62500  0.45425  0.17075
E95   E   0.62500  0.54575  0.32925
E96   E   0.62500  0.57925  0.20425
E97   E   0.62500  0.92075  0.70425
E98   E   0.62500  0.95425  0.82925
E99   E   0.67075  0.12500  0.95425
E100  E   0.67075  0.37500  0.45425
E101  E   0.67075  0.62500  0.04575
E102  E   0.67075  0.87500  0.54575
E103  E   0.70425  0.12500  0.07925
E104  E   0.70425  0.37500  0.57925
E105  E   0.70425  0.62500  0.92075
E106  E   0.70425  0.87500  0.42075
E107  E   0.71651  0.00000  0.75000
E108  E   0.71651  0.50000  0.25000
E109  E   0.75000  0.03349  0.00000
E110  E   0.75000  0.21651  0.00000
E111  E   0.75000  0.28349  0.50000
E112  E   0.75000  0.46651  0.50000
E113  E   0.75000  0.53349  0.00000
E114  E   0.75000  0.71651  0.00000
E115  E   0.75000  0.78349  0.50000
E116  E   0.75000  0.96651  0.50000
E117  E   0.78349  0.00000  0.25000
E118  E   0.78349  0.50000  0.75000
E119  E   0.79575  0.12500  0.92075
E120  E   0.79575  0.37500  0.42075
E121  E   0.79575  0.62500  0.07925
E122  E   0.79575  0.87500  0.57925
E123  E   0.82925  0.12500  0.04575
E124  E   0.82925  0.37500  0.54575
E125  E   0.82925  0.62500  0.95425
E126  E   0.82925  0.87500  0.45425
E127  E   0.87500  0.04575  0.32925
E128  E   0.87500  0.07925  0.20425
E129  E   0.87500  0.42075  0.70425
E130  E   0.87500  0.45425  0.82925
E131  E   0.87500  0.54575  0.67075
E132  E   0.87500  0.57925  0.79575
E133  E   0.87500  0.92075  0.29575
E134  E   0.87500  0.95425  0.17075
E135  E   0.92075  0.20425  0.37500
E136  E   0.92075  0.29575  0.87500
E137  E   0.92075  0.70425  0.62500
E138  E   0.92075  0.79575  0.12500
E139  E   0.95425  0.17075  0.87500
E140  E   0.95425  0.32925  0.37500
E141  E   0.95425  0.67075  0.12500
E142  E   0.95425  0.82925  0.62500
E143  E   0.96651  0.00000  0.25000
E144  E   0.96651  0.50000  0.75000
loop_
