data_lni_P63/mmc  hall_number: 488, V_con: 4, EC_con: 3
_audit_creation_date              2025-03-06
_audit_creation_method            'MOFbuilder_1.0'
_symmetry_space_group_name_H-M    'P1'
_symmetry_Int_Tables_number       1
_symmetry_cell_setting            triclinic
loop_
_symmetry_equiv_pos_as_xyz
  x,y,z
_cell_length_a                    36.8983
_cell_length_b                    36.8983
_cell_length_c                    39.0868
_cell_angle_alpha                 90.0
_cell_angle_beta                  90.0
_cell_angle_gamma                 120.0
loop_
_atom_site_label
_atom_site_type_symbol
_atom_site_fract_x
_atom_site_fract_y
_atom_site_fract_z
V1    V   0.24299  0.48599  0.75000
V2    V   0.24299  0.75700  0.75000
V3    V   0.24300  0.48599  0.75000
V4    V   0.24300  0.75701  0.75000
V5    V   0.48599  0.24299  0.25000
V6    V   0.48599  0.24300  0.25000
V7    V   0.51401  0.75700  0.75000
V8    V   0.51401  0.75701  0.75000
V9    V   0.75700  0.24299  0.25000
V10   V   0.75700  0.51401  0.25000
V11   V   0.75701  0.24300  0.25000
V12   V   0.75701  0.51401  0.25000
EC1    EC   0.13738  0.27477  0.56123
EC2    EC   0.13738  0.27477  0.93877
EC3    EC   0.13738  0.86261  0.56123
EC4    EC   0.13738  0.86261  0.93877
EC5    EC   0.13739  0.27477  0.56123
EC6    EC   0.13739  0.27477  0.93877
EC7    EC   0.13739  0.86262  0.56123
EC8    EC   0.13739  0.86262  0.93877
EC9    EC   0.27477  0.13738  0.06123
EC10   EC   0.27477  0.13738  0.43877
EC11   EC   0.27477  0.13739  0.06123
EC12   EC   0.27477  0.13739  0.43877
EC13   EC   0.72523  0.86261  0.56123
EC14   EC   0.72523  0.86261  0.93877
EC15   EC   0.72523  0.86262  0.56123
EC16   EC   0.72523  0.86262  0.93877
EC17   EC   0.86261  0.13738  0.06123
EC18   EC   0.86261  0.13738  0.43877
EC19   EC   0.86261  0.72523  0.06123
EC20   EC   0.86261  0.72523  0.43877
EC21   EC   0.86262  0.13739  0.06123
EC22   EC   0.86262  0.13739  0.43877
EC23   EC   0.86262  0.72523  0.06123
EC24   EC   0.86262  0.72523  0.43877
E1    E   0.00000  0.20607  0.00000
E2    E   0.00000  0.20607  0.50000
E3    E   0.00000  0.79393  0.00000
E4    E   0.00000  0.79393  0.50000
E5    E   0.19019  0.38038  0.65561
E6    E   0.19019  0.38038  0.84439
E7    E   0.19019  0.80981  0.65561
E8    E   0.19019  0.80981  0.84439
E9    E   0.20607  0.00000  0.00000
E10   E   0.20607  0.00000  0.50000
E11   E   0.20607  0.20607  0.00000
E12   E   0.20607  0.20607  0.50000
E13   E   0.24299  0.62149  0.75000
E14   E   0.24299  0.62150  0.75000
E15   E   0.37850  0.62149  0.75000
E16   E   0.37850  0.75701  0.75000
E17   E   0.37851  0.62150  0.75000
E18   E   0.37851  0.75701  0.75000
E19   E   0.38038  0.19019  0.15561
E20   E   0.38038  0.19019  0.34439
E21   E   0.61962  0.80981  0.65561
E22   E   0.61962  0.80981  0.84439
E23   E   0.62149  0.24299  0.25000
E24   E   0.62149  0.37850  0.25000
E25   E   0.62150  0.24299  0.25000
E26   E   0.62150  0.37851  0.25000
E27   E   0.75701  0.37850  0.25000
E28   E   0.75701  0.37851  0.25000
E29   E   0.79393  0.00000  0.00000
E30   E   0.79393  0.00000  0.50000
E31   E   0.79393  0.79393  0.00000
E32   E   0.79393  0.79393  0.50000
E33   E   0.80981  0.19019  0.15561
E34   E   0.80981  0.19019  0.34439
E35   E   0.80981  0.61962  0.15561
E36   E   0.80981  0.61962  0.34439
loop_
