data_lqm_I4122  hall_number: 375, V_con: 4, EC_con: 3
_audit_creation_date              2025-03-06
_audit_creation_method            'MOFbuilder_1.0'
_symmetry_space_group_name_H-M    'P1'
_symmetry_Int_Tables_number       1
_symmetry_cell_setting            triclinic
loop_
_symmetry_equiv_pos_as_xyz
  x,y,z
_cell_length_a                    31.949
_cell_length_b                    31.949
_cell_length_c                    72.29390000000001
_cell_angle_alpha                 90.0
_cell_angle_beta                  90.0
_cell_angle_gamma                 90.0
loop_
_atom_site_label
_atom_site_type_symbol
_atom_site_fract_x
_atom_site_fract_y
_atom_site_fract_z
V1    V   0.00000  0.00000  0.14239
V2    V   0.00000  0.00000  0.85761
V3    V   0.00000  0.50000  0.10761
V4    V   0.00000  0.50000  0.39239
V5    V   0.50000  0.00000  0.60761
V6    V   0.50000  0.00000  0.89239
V7    V   0.50000  0.50000  0.35761
V8    V   0.50000  0.50000  0.64239
EC1    EC   0.08634  0.72471  0.19602
EC2    EC   0.08634  0.77529  0.05398
EC3    EC   0.22471  0.58634  0.30398
EC4    EC   0.22471  0.91366  0.94602
EC5    EC   0.27529  0.58634  0.44602
EC6    EC   0.27529  0.91366  0.80398
EC7    EC   0.41366  0.72471  0.55398
EC8    EC   0.41366  0.77529  0.69602
EC9    EC   0.58634  0.22471  0.69602
EC10   EC   0.58634  0.27529  0.55398
EC11   EC   0.72471  0.08634  0.80398
EC12   EC   0.72471  0.41366  0.44602
EC13   EC   0.77529  0.08634  0.94602
EC14   EC   0.77529  0.41366  0.30398
EC15   EC   0.91366  0.22471  0.05398
EC16   EC   0.91366  0.27529  0.19602
E1    E   0.04317  0.61235  0.15182
E2    E   0.04317  0.63765  0.08080
E3    E   0.04317  0.86235  0.16920
E4    E   0.04317  0.88765  0.09818
E5    E   0.11235  0.54317  0.34818
E6    E   0.11235  0.95683  0.90182
E7    E   0.13765  0.54317  0.41920
E8    E   0.13765  0.95683  0.83080
E9    E   0.15552  0.65552  0.25000
E10   E   0.15552  0.84448  0.00000
E11   E   0.15552  0.65552  0.25000
E12   E   0.15552  0.84448  0.00000
E13   E   0.34448  0.65552  0.50000
E14   E   0.34448  0.84448  0.75000
E15   E   0.36235  0.54317  0.33080
E16   E   0.36235  0.95683  0.91920
E17   E   0.38765  0.54317  0.40182
E18   E   0.38765  0.95683  0.84818
E19   E   0.45683  0.61235  0.59818
E20   E   0.45683  0.63765  0.66920
E21   E   0.45683  0.86235  0.58080
E22   E   0.45683  0.88765  0.65182
E23   E   0.54317  0.11235  0.65182
E24   E   0.54317  0.13765  0.58080
E25   E   0.54317  0.36235  0.66920
E26   E   0.54317  0.38765  0.59818
E27   E   0.61235  0.04317  0.84818
E28   E   0.61235  0.45683  0.40182
E29   E   0.63765  0.04317  0.91920
E30   E   0.63765  0.45683  0.33080
E31   E   0.65552  0.15552  0.75000
E32   E   0.65552  0.15552  0.75000
E33   E   0.65552  0.34448  0.50000
E34   E   0.84448  0.15552  0.00000
E35   E   0.84448  0.15552  0.00000
E36   E   0.84448  0.34448  0.25000
E37   E   0.86235  0.04317  0.83080
E38   E   0.86235  0.45683  0.41920
E39   E   0.88765  0.04317  0.90182
E40   E   0.88765  0.45683  0.34818
E41   E   0.95683  0.11235  0.09818
E42   E   0.95683  0.13765  0.16920
E43   E   0.95683  0.36235  0.08080
E44   E   0.95683  0.38765  0.15182
loop_
