data_ltw_P-43n  hall_number: 514, V_con: 6, EC_con: 3
_audit_creation_date              2025-03-06
_audit_creation_method            'MOFbuilder_1.0'
_symmetry_space_group_name_H-M    'P1'
_symmetry_Int_Tables_number       1
_symmetry_cell_setting            triclinic
loop_
_symmetry_equiv_pos_as_xyz
  x,y,z
_cell_length_a                    39.8304
_cell_length_b                    39.8304
_cell_length_c                    39.8304
_cell_angle_alpha                 90.0
_cell_angle_beta                  90.0
_cell_angle_gamma                 90.0
loop_
_atom_site_label
_atom_site_type_symbol
_atom_site_fract_x
_atom_site_fract_y
_atom_site_fract_z
V1    V   0.05934  0.44055  0.62501
V2    V   0.05934  0.55945  0.37499
V3    V   0.05945  0.44066  0.12501
V4    V   0.05945  0.55934  0.87499
V5    V   0.12501  0.05945  0.44066
V6    V   0.12501  0.94055  0.55934
V7    V   0.37499  0.05934  0.55945
V8    V   0.37499  0.94066  0.44055
V9    V   0.44055  0.37499  0.94066
V10   V   0.44055  0.62501  0.05934
V11   V   0.44066  0.12501  0.05945
V12   V   0.44066  0.87499  0.94055
V13   V   0.55934  0.12501  0.94055
V14   V   0.55934  0.87499  0.05945
V15   V   0.55945  0.37499  0.05934
V16   V   0.55945  0.62501  0.94066
V17   V   0.62501  0.05934  0.44055
V18   V   0.62501  0.94066  0.55945
V19   V   0.87499  0.05945  0.55934
V20   V   0.87499  0.94055  0.44066
V21   V   0.94055  0.44066  0.87499
V22   V   0.94055  0.55934  0.12501
V23   V   0.94066  0.44055  0.37499
V24   V   0.94066  0.55945  0.62501
EC1    EC   0.12083  0.20840  0.67873
EC2    EC   0.12083  0.79160  0.32127
EC3    EC   0.17873  0.29160  0.37917
EC4    EC   0.17873  0.70840  0.62083
EC5    EC   0.20840  0.32127  0.87917
EC6    EC   0.20840  0.67873  0.12083
EC7    EC   0.29160  0.37917  0.17873
EC8    EC   0.29160  0.62083  0.82127
EC9    EC   0.32127  0.12083  0.79160
EC10   EC   0.32127  0.87917  0.20840
EC11   EC   0.37917  0.17873  0.29160
EC12   EC   0.37917  0.82127  0.70840
EC13   EC   0.62083  0.17873  0.70840
EC14   EC   0.62083  0.82127  0.29160
EC15   EC   0.67873  0.12083  0.20840
EC16   EC   0.67873  0.87917  0.79160
EC17   EC   0.70840  0.37917  0.82127
EC18   EC   0.70840  0.62083  0.17873
EC19   EC   0.79160  0.32127  0.12083
EC20   EC   0.79160  0.67873  0.87917
EC21   EC   0.82127  0.29160  0.62083
EC22   EC   0.82127  0.70840  0.37917
EC23   EC   0.87917  0.20840  0.32127
EC24   EC   0.87917  0.79160  0.67873
E1    E   0.00000  0.00000  0.44066
E2    E   0.00000  0.00000  0.55934
E3    E   0.00000  0.05945  0.50000
E4    E   0.00000  0.44055  0.50000
E5    E   0.00000  0.44066  0.00000
E6    E   0.00000  0.50000  0.12501
E7    E   0.00000  0.50000  0.37499
E8    E   0.00000  0.50000  0.62501
E9    E   0.00000  0.50000  0.87499
E10   E   0.00000  0.55934  0.00000
E11   E   0.00000  0.55945  0.50000
E12   E   0.00000  0.94055  0.50000
E13   E   0.00005  0.44061  0.25000
E14   E   0.00005  0.55939  0.75000
E15   E   0.05934  0.50000  0.50000
E16   E   0.05939  0.49995  0.75000
E17   E   0.05939  0.50005  0.25000
E18   E   0.05945  0.50000  0.00000
E19   E   0.09009  0.32448  0.65187
E20   E   0.09009  0.67552  0.34813
E21   E   0.12501  0.00000  0.50000
E22   E   0.15187  0.17552  0.40991
E23   E   0.15187  0.82448  0.59009
E24   E   0.16462  0.26484  0.77895
E25   E   0.16462  0.73516  0.22105
E26   E   0.17552  0.40991  0.15187
E27   E   0.17552  0.59009  0.84813
E28   E   0.22105  0.16462  0.73516
E29   E   0.22105  0.83538  0.26484
E30   E   0.23516  0.33538  0.27895
E31   E   0.23516  0.66462  0.72105
E32   E   0.25000  0.00005  0.44061
E33   E   0.25000  0.05939  0.50005
E34   E   0.25000  0.94061  0.49995
E35   E   0.25000  0.99995  0.55939
E36   E   0.26484  0.22105  0.83538
E37   E   0.26484  0.77895  0.16462
E38   E   0.27895  0.23516  0.33538
E39   E   0.27895  0.76484  0.66462
E40   E   0.32448  0.34813  0.90991
E41   E   0.32448  0.65187  0.09009
E42   E   0.33538  0.27895  0.23516
E43   E   0.33538  0.72105  0.76484
E44   E   0.34813  0.09009  0.67552
E45   E   0.34813  0.90991  0.32448
E46   E   0.37499  0.00000  0.50000
E47   E   0.40991  0.15187  0.17552
E48   E   0.40991  0.84813  0.82448
E49   E   0.44055  0.50000  0.00000
E50   E   0.44061  0.25000  0.00005
E51   E   0.44061  0.75000  0.99995
E52   E   0.44066  0.00000  0.00000
E53   E   0.49995  0.25000  0.94061
E54   E   0.49995  0.75000  0.05939
E55   E   0.50000  0.00000  0.05945
E56   E   0.50000  0.00000  0.44055
E57   E   0.50000  0.00000  0.55945
E58   E   0.50000  0.00000  0.94055
E59   E   0.50000  0.05934  0.50000
E60   E   0.50000  0.12501  0.00000
E61   E   0.50000  0.37499  0.00000
E62   E   0.50000  0.50000  0.05934
E63   E   0.50000  0.50000  0.94066
E64   E   0.50000  0.62501  0.00000
E65   E   0.50000  0.87499  0.00000
E66   E   0.50000  0.94066  0.50000
E67   E   0.50005  0.25000  0.05939
E68   E   0.50005  0.75000  0.94061
E69   E   0.55934  0.00000  0.00000
E70   E   0.55939  0.25000  0.99995
E71   E   0.55939  0.75000  0.00005
E72   E   0.55945  0.50000  0.00000
E73   E   0.59009  0.15187  0.82448
E74   E   0.59009  0.84813  0.17552
E75   E   0.62501  0.00000  0.50000
E76   E   0.65187  0.09009  0.32448
E77   E   0.65187  0.90991  0.67552
E78   E   0.66462  0.27895  0.76484
E79   E   0.66462  0.72105  0.23516
E80   E   0.67552  0.34813  0.09009
E81   E   0.67552  0.65187  0.90991
E82   E   0.72105  0.23516  0.66462
E83   E   0.72105  0.76484  0.33538
E84   E   0.73516  0.22105  0.16462
E85   E   0.73516  0.77895  0.83538
E86   E   0.75000  0.00005  0.55939
E87   E   0.75000  0.05939  0.49995
E88   E   0.75000  0.94061  0.50005
E89   E   0.75000  0.99995  0.44061
E90   E   0.76484  0.33538  0.72105
E91   E   0.76484  0.66462  0.27895
E92   E   0.77895  0.16462  0.26484
E93   E   0.77895  0.83538  0.73516
E94   E   0.82448  0.40991  0.84813
E95   E   0.82448  0.59009  0.15187
E96   E   0.83538  0.26484  0.22105
E97   E   0.83538  0.73516  0.77895
E98   E   0.84813  0.17552  0.59009
E99   E   0.84813  0.82448  0.40991
E100  E   0.87499  0.00000  0.50000
E101  E   0.90991  0.32448  0.34813
E102  E   0.90991  0.67552  0.65187
E103  E   0.94055  0.50000  0.00000
E104  E   0.94061  0.49995  0.25000
E105  E   0.94061  0.50005  0.75000
E106  E   0.94066  0.50000  0.50000
E107  E   0.99995  0.44061  0.75000
E108  E   0.99995  0.55939  0.25000
loop_
