data_lul_I41/amd:2  hall_number: 427, V_con: 4, EC_con: 4
_audit_creation_date              2025-03-06
_audit_creation_method            'MOFbuilder_1.0'
_symmetry_space_group_name_H-M    'P1'
_symmetry_Int_Tables_number       1
_symmetry_cell_setting            triclinic
loop_
_symmetry_equiv_pos_as_xyz
  x,y,z
_cell_length_a                    34.227199999999996
_cell_length_b                    34.227199999999996
_cell_length_c                    35.1457
_cell_angle_alpha                 90.0
_cell_angle_beta                  90.0
_cell_angle_gamma                 90.0
loop_
_atom_site_label
_atom_site_type_symbol
_atom_site_fract_x
_atom_site_fract_y
_atom_site_fract_z
V1    V   0.15090  0.00000  0.00000
V2    V   0.15090  0.50000  0.00000
V3    V   0.25000  0.09910  0.75000
V4    V   0.25000  0.40090  0.75000
V5    V   0.25000  0.59910  0.25000
V6    V   0.25000  0.90090  0.25000
V7    V   0.34910  0.00000  0.50000
V8    V   0.34910  0.50000  0.50000
V9    V   0.65090  0.00000  0.50000
V10   V   0.65090  0.50000  0.50000
V11   V   0.75000  0.09910  0.75000
V12   V   0.75000  0.40090  0.75000
V13   V   0.75000  0.59910  0.25000
V14   V   0.75000  0.90090  0.25000
V15   V   0.84910  0.00000  0.00000
V16   V   0.84910  0.50000  0.00000
EC1    EC   0.00000  0.25000  0.00010
EC2    EC   0.00000  0.25000  0.74990
EC3    EC   0.00000  0.75000  0.25010
EC4    EC   0.00000  0.75000  0.99990
EC5    EC   0.50000  0.25000  0.49990
EC6    EC   0.50000  0.25000  0.75010
EC7    EC   0.50000  0.75000  0.24990
EC8    EC   0.50000  0.75000  0.50010
E1    E   0.07545  0.12500  0.00005
E2    E   0.07545  0.37500  0.00005
E3    E   0.07545  0.62500  0.99995
E4    E   0.07545  0.87500  0.99995
E5    E   0.12500  0.17455  0.74995
E6    E   0.12500  0.32545  0.74995
E7    E   0.12500  0.67455  0.25005
E8    E   0.12500  0.82545  0.25005
E9    E   0.20045  0.04955  0.87500
E10   E   0.20045  0.45045  0.87500
E11   E   0.20045  0.54955  0.12500
E12   E   0.20045  0.95045  0.12500
E13   E   0.20045  0.04955  0.87500
E14   E   0.20045  0.45045  0.87500
E15   E   0.20045  0.54955  0.12500
E16   E   0.20045  0.95045  0.12500
E17   E   0.29955  0.04955  0.62500
E18   E   0.29955  0.04955  0.62500
E19   E   0.29955  0.45045  0.62500
E20   E   0.29955  0.54955  0.37500
E21   E   0.29955  0.95045  0.37500
E22   E   0.37500  0.17455  0.75005
E23   E   0.37500  0.32545  0.75005
E24   E   0.37500  0.67455  0.24995
E25   E   0.37500  0.82545  0.24995
E26   E   0.42455  0.12500  0.49995
E27   E   0.42455  0.37500  0.49995
E28   E   0.42455  0.62500  0.50005
E29   E   0.42455  0.87500  0.50005
E30   E   0.57545  0.12500  0.49995
E31   E   0.57545  0.37500  0.49995
E32   E   0.57545  0.62500  0.50005
E33   E   0.57545  0.87500  0.50005
E34   E   0.62500  0.17455  0.75005
E35   E   0.62500  0.32545  0.75005
E36   E   0.62500  0.67455  0.24995
E37   E   0.62500  0.82545  0.24995
E38   E   0.70045  0.04955  0.62500
E39   E   0.70045  0.04955  0.62500
E40   E   0.70045  0.45045  0.62500
E41   E   0.70045  0.54955  0.37500
E42   E   0.70045  0.95045  0.37500
E43   E   0.79955  0.04955  0.87500
E44   E   0.79955  0.04955  0.87500
E45   E   0.79955  0.45045  0.87500
E46   E   0.79955  0.54955  0.12500
E47   E   0.79955  0.95045  0.12500
E48   E   0.87500  0.17455  0.74995
E49   E   0.87500  0.32545  0.74995
E50   E   0.87500  0.67455  0.25005
E51   E   0.87500  0.82545  0.25005
E52   E   0.92455  0.12500  0.00005
E53   E   0.92455  0.37500  0.00005
E54   E   0.92455  0.62500  0.99995
E55   E   0.92455  0.87500  0.99995
loop_
