data_lun_I41/amd:2  hall_number: 427, V_con: 4, EC_con: 3
_audit_creation_date              2025-03-06
_audit_creation_method            'MOFbuilder_1.0'
_symmetry_space_group_name_H-M    'P1'
_symmetry_Int_Tables_number       1
_symmetry_cell_setting            triclinic
loop_
_symmetry_equiv_pos_as_xyz
  x,y,z
_cell_length_a                    38.602199999999996
_cell_length_b                    38.602199999999996
_cell_length_c                    38.3373
_cell_angle_alpha                 90.0
_cell_angle_beta                  90.0
_cell_angle_gamma                 90.0
loop_
_atom_site_label
_atom_site_type_symbol
_atom_site_fract_x
_atom_site_fract_y
_atom_site_fract_z
V1    V   0.19717  0.00000  0.50000
V2    V   0.19717  0.50000  0.50000
V3    V   0.25000  0.05283  0.25000
V4    V   0.25000  0.44717  0.25000
V5    V   0.25000  0.55283  0.75000
V6    V   0.25000  0.94717  0.75000
V7    V   0.30283  0.00000  0.00000
V8    V   0.30283  0.50000  0.00000
V9    V   0.69717  0.00000  0.00000
V10   V   0.69717  0.50000  0.00000
V11   V   0.75000  0.05283  0.25000
V12   V   0.75000  0.44717  0.25000
V13   V   0.75000  0.55283  0.75000
V14   V   0.75000  0.94717  0.75000
V15   V   0.80283  0.00000  0.50000
V16   V   0.80283  0.50000  0.50000
EC1    EC   0.00000  0.12069  0.25018
EC2    EC   0.00000  0.37931  0.25018
EC3    EC   0.00000  0.62069  0.74982
EC4    EC   0.00000  0.87931  0.74982
EC5    EC   0.12931  0.25000  0.49982
EC6    EC   0.12931  0.75000  0.50018
EC7    EC   0.37069  0.25000  0.00018
EC8    EC   0.37069  0.75000  0.99982
EC9    EC   0.50000  0.12069  0.24982
EC10   EC   0.50000  0.37931  0.24982
EC11   EC   0.50000  0.62069  0.75018
EC12   EC   0.50000  0.87931  0.75018
EC13   EC   0.62931  0.25000  0.00018
EC14   EC   0.62931  0.75000  0.99982
EC15   EC   0.87069  0.25000  0.49982
EC16   EC   0.87069  0.75000  0.50018
E1    E   0.00000  0.25000  0.25018
E2    E   0.00000  0.25000  0.49982
E3    E   0.00000  0.75000  0.50018
E4    E   0.00000  0.75000  0.74982
E5    E   0.12500  0.08676  0.25009
E6    E   0.12500  0.41324  0.25009
E7    E   0.12500  0.58676  0.74991
E8    E   0.12500  0.91324  0.74991
E9    E   0.16324  0.12500  0.49991
E10   E   0.16324  0.37500  0.49991
E11   E   0.16324  0.62500  0.50009
E12   E   0.16324  0.87500  0.50009
E13   E   0.22358  0.02642  0.37500
E14   E   0.22358  0.02642  0.37500
E15   E   0.22358  0.47358  0.37500
E16   E   0.22358  0.52642  0.62500
E17   E   0.22358  0.97358  0.62500
E18   E   0.27642  0.02642  0.12500
E19   E   0.27642  0.02642  0.12500
E20   E   0.27642  0.47358  0.12500
E21   E   0.27642  0.52642  0.87500
E22   E   0.27642  0.97358  0.87500
E23   E   0.33676  0.12500  0.00009
E24   E   0.33676  0.37500  0.00009
E25   E   0.33676  0.62500  0.99991
E26   E   0.33676  0.87500  0.99991
E27   E   0.37500  0.08676  0.24991
E28   E   0.37500  0.41324  0.24991
E29   E   0.37500  0.58676  0.75009
E30   E   0.37500  0.91324  0.75009
E31   E   0.50000  0.25000  0.00018
E32   E   0.50000  0.25000  0.24982
E33   E   0.50000  0.75000  0.75018
E34   E   0.50000  0.75000  0.99982
E35   E   0.62500  0.08676  0.24991
E36   E   0.62500  0.41324  0.24991
E37   E   0.62500  0.58676  0.75009
E38   E   0.62500  0.91324  0.75009
E39   E   0.66324  0.12500  0.00009
E40   E   0.66324  0.37500  0.00009
E41   E   0.66324  0.62500  0.99991
E42   E   0.66324  0.87500  0.99991
E43   E   0.72358  0.02642  0.12500
E44   E   0.72358  0.02642  0.12500
E45   E   0.72358  0.47358  0.12500
E46   E   0.72358  0.52642  0.87500
E47   E   0.72358  0.97358  0.87500
E48   E   0.77642  0.02642  0.37500
E49   E   0.77642  0.02642  0.37500
E50   E   0.77642  0.47358  0.37500
E51   E   0.77642  0.52642  0.62500
E52   E   0.77642  0.97358  0.62500
E53   E   0.83676  0.12500  0.49991
E54   E   0.83676  0.37500  0.49991
E55   E   0.83676  0.62500  0.50009
E56   E   0.83676  0.87500  0.50009
E57   E   0.87500  0.08676  0.25009
E58   E   0.87500  0.41324  0.25009
E59   E   0.87500  0.58676  0.74991
E60   E   0.87500  0.91324  0.74991
loop_
