data_lvt-a_I41/amd:2  hall_number: 427, V_con: 3
_audit_creation_date              2025-03-06
_audit_creation_method            'MOFbuilder_1.0'
_symmetry_space_group_name_H-M    'P1'
_symmetry_Int_Tables_number       1
_symmetry_cell_setting            triclinic
loop_
_symmetry_equiv_pos_as_xyz
  x,y,z
_cell_length_a                    56.3356
_cell_length_b                    56.3356
_cell_length_c                    53.126400000000004
_cell_angle_alpha                 90.0
_cell_angle_beta                  90.0
_cell_angle_gamma                 90.0
loop_
_atom_site_label
_atom_site_type_symbol
_atom_site_fract_x
_atom_site_fract_y
_atom_site_fract_z
V1    V   0.08875  0.06084  0.93148
V2    V   0.08875  0.43916  0.93148
V3    V   0.08875  0.56084  0.06852
V4    V   0.08875  0.93916  0.06852
V5    V   0.18916  0.16125  0.81852
V6    V   0.18916  0.33875  0.81852
V7    V   0.18916  0.66125  0.18148
V8    V   0.18916  0.83875  0.18148
V9    V   0.31084  0.16125  0.68148
V10   V   0.31084  0.33875  0.68148
V11   V   0.31084  0.66125  0.31852
V12   V   0.31084  0.83875  0.31852
V13   V   0.41125  0.06084  0.56852
V14   V   0.41125  0.43916  0.56852
V15   V   0.41125  0.56084  0.43148
V16   V   0.41125  0.93916  0.43148
V17   V   0.58875  0.06084  0.56852
V18   V   0.58875  0.43916  0.56852
V19   V   0.58875  0.56084  0.43148
V20   V   0.58875  0.93916  0.43148
V21   V   0.68916  0.16125  0.68148
V22   V   0.68916  0.33875  0.68148
V23   V   0.68916  0.66125  0.31852
V24   V   0.68916  0.83875  0.31852
V25   V   0.81084  0.16125  0.81852
V26   V   0.81084  0.33875  0.81852
V27   V   0.81084  0.66125  0.18148
V28   V   0.81084  0.83875  0.18148
V29   V   0.91125  0.06084  0.93148
V30   V   0.91125  0.43916  0.93148
V31   V   0.91125  0.56084  0.06852
V32   V   0.91125  0.93916  0.06852
E1    E   0.00000  0.06084  0.93148
E2    E   0.00000  0.43916  0.93148
E3    E   0.00000  0.56084  0.06852
E4    E   0.00000  0.93916  0.06852
E5    E   0.08875  0.00000  0.00000
E6    E   0.08875  0.50000  0.00000
E7    E   0.13896  0.11104  0.87500
E8    E   0.13896  0.38896  0.87500
E9    E   0.13896  0.61104  0.12500
E10   E   0.13896  0.88896  0.12500
E11   E   0.13896  0.11104  0.87500
E12   E   0.13896  0.38896  0.87500
E13   E   0.13896  0.61104  0.12500
E14   E   0.13896  0.88896  0.12500
E15   E   0.18916  0.25000  0.81852
E16   E   0.18916  0.75000  0.18148
E17   E   0.25000  0.16125  0.75000
E18   E   0.25000  0.33875  0.75000
E19   E   0.25000  0.66125  0.25000
E20   E   0.25000  0.83875  0.25000
E21   E   0.31084  0.25000  0.68148
E22   E   0.31084  0.75000  0.31852
E23   E   0.36104  0.11104  0.62500
E24   E   0.36104  0.11104  0.62500
E25   E   0.36104  0.38896  0.62500
E26   E   0.36104  0.61104  0.37500
E27   E   0.36104  0.88896  0.37500
E28   E   0.41125  0.00000  0.50000
E29   E   0.41125  0.50000  0.50000
E30   E   0.50000  0.06084  0.56852
E31   E   0.50000  0.43916  0.56852
E32   E   0.50000  0.56084  0.43148
E33   E   0.50000  0.93916  0.43148
E34   E   0.58875  0.00000  0.50000
E35   E   0.58875  0.50000  0.50000
E36   E   0.63896  0.11104  0.62500
E37   E   0.63896  0.11104  0.62500
E38   E   0.63896  0.38896  0.62500
E39   E   0.63896  0.61104  0.37500
E40   E   0.63896  0.88896  0.37500
E41   E   0.68916  0.25000  0.68148
E42   E   0.68916  0.75000  0.31852
E43   E   0.75000  0.16125  0.75000
E44   E   0.75000  0.33875  0.75000
E45   E   0.75000  0.66125  0.25000
E46   E   0.75000  0.83875  0.25000
E47   E   0.81084  0.25000  0.81852
E48   E   0.81084  0.75000  0.18148
E49   E   0.86104  0.11104  0.87500
E50   E   0.86104  0.11104  0.87500
E51   E   0.86104  0.38896  0.87500
E52   E   0.86104  0.61104  0.12500
E53   E   0.86104  0.88896  0.12500
E54   E   0.91125  0.00000  0.00000
E55   E   0.91125  0.50000  0.00000
loop_
