data_mbc_Cmcm  hall_number: 298, V_con: 12, EC_con: 10
_audit_creation_date              2025-03-06
_audit_creation_method            'MOFbuilder_1.0'
_symmetry_space_group_name_H-M    'P1'
_symmetry_Int_Tables_number       1
_symmetry_cell_setting            triclinic
loop_
_symmetry_equiv_pos_as_xyz
  x,y,z
_cell_length_a                    10.0
_cell_length_b                    59.7473
_cell_length_c                    9.9999
_cell_angle_alpha                 90.0
_cell_angle_beta                  90.0
_cell_angle_gamma                 90.0
loop_
_atom_site_label
_atom_site_type_symbol
_atom_site_fract_x
_atom_site_fract_y
_atom_site_fract_z
V1    V   0.00000  0.30917  0.75000
V2    V   0.00000  0.69083  0.25000
V3    V   0.50000  0.19083  0.25000
V4    V   0.50000  0.80917  0.75000
EC1    EC   0.00000  0.07247  0.75000
EC2    EC   0.00000  0.92753  0.25000
EC3    EC   0.50000  0.42753  0.25000
EC4    EC   0.50000  0.57247  0.75000
E1    E   0.00000  0.00000  0.00000
E2    E   0.00000  0.00000  0.50000
E3    E   0.00000  0.07247  0.25000
E4    E   0.00000  0.19083  0.25000
E5    E   0.00000  0.30917  0.25000
E6    E   0.00000  0.42753  0.25000
E7    E   0.00000  0.57247  0.75000
E8    E   0.00000  0.69083  0.75000
E9    E   0.00000  0.80917  0.75000
E10   E   0.00000  0.92753  0.75000
E11   E   0.25000  0.13165  0.00000
E12   E   0.25000  0.13165  0.50000
E13   E   0.25000  0.25000  0.00000
E14   E   0.25000  0.25000  0.50000
E15   E   0.25000  0.36835  0.00000
E16   E   0.25000  0.36835  0.50000
E17   E   0.25000  0.63165  0.00000
E18   E   0.25000  0.63165  0.50000
E19   E   0.25000  0.75000  0.00000
E20   E   0.25000  0.75000  0.50000
E21   E   0.25000  0.86835  0.00000
E22   E   0.25000  0.86835  0.50000
E23   E   0.50000  0.07247  0.75000
E24   E   0.50000  0.19083  0.75000
E25   E   0.50000  0.30917  0.75000
E26   E   0.50000  0.42753  0.75000
E27   E   0.50000  0.50000  0.00000
E28   E   0.50000  0.50000  0.50000
E29   E   0.50000  0.57247  0.25000
E30   E   0.50000  0.69083  0.25000
E31   E   0.50000  0.80917  0.25000
E32   E   0.50000  0.92753  0.25000
E33   E   0.75000  0.13165  0.00000
E34   E   0.75000  0.13165  0.50000
E35   E   0.75000  0.25000  0.00000
E36   E   0.75000  0.25000  0.50000
E37   E   0.75000  0.36835  0.00000
E38   E   0.75000  0.36835  0.50000
E39   E   0.75000  0.63165  0.00000
E40   E   0.75000  0.63165  0.50000
E41   E   0.75000  0.75000  0.00000
E42   E   0.75000  0.75000  0.50000
E43   E   0.75000  0.86835  0.00000
E44   E   0.75000  0.86835  0.50000
loop_
