data_mdh_I4/mmm  hall_number: 424, V_con: 5, EC_con: 4
_audit_creation_date              2025-03-06
_audit_creation_method            'MOFbuilder_1.0'
_symmetry_space_group_name_H-M    'P1'
_symmetry_Int_Tables_number       1
_symmetry_cell_setting            triclinic
loop_
_symmetry_equiv_pos_as_xyz
  x,y,z
_cell_length_a                    33.8565
_cell_length_b                    33.8565
_cell_length_c                    38.9868
_cell_angle_alpha                 90.0
_cell_angle_beta                  90.0
_cell_angle_gamma                 90.0
loop_
_atom_site_label
_atom_site_type_symbol
_atom_site_fract_x
_atom_site_fract_y
_atom_site_fract_z
V1    V   0.00000  0.35232  0.00000
V2    V   0.00000  0.64768  0.00000
V3    V   0.14768  0.50000  0.50000
V4    V   0.35232  0.00000  0.00000
V5    V   0.50000  0.14768  0.50000
V6    V   0.50000  0.85232  0.50000
V7    V   0.64768  0.00000  0.00000
V8    V   0.85232  0.50000  0.50000
EC1    EC   0.21718  0.21718  0.12825
EC2    EC   0.21718  0.21718  0.87175
EC3    EC   0.21718  0.78282  0.12825
EC4    EC   0.21718  0.78282  0.87175
EC5    EC   0.28282  0.28282  0.37175
EC6    EC   0.28282  0.28282  0.62825
EC7    EC   0.28282  0.71718  0.37175
EC8    EC   0.28282  0.71718  0.62825
EC9    EC   0.71718  0.28282  0.37175
EC10   EC   0.71718  0.28282  0.62825
EC11   EC   0.71718  0.71718  0.37175
EC12   EC   0.71718  0.71718  0.62825
EC13   EC   0.78282  0.21718  0.12825
EC14   EC   0.78282  0.21718  0.87175
EC15   EC   0.78282  0.78282  0.12825
EC16   EC   0.78282  0.78282  0.87175
E1    E   0.00000  0.50000  0.00000
E2    E   0.00000  0.50000  0.50000
E3    E   0.10859  0.28475  0.06412
E4    E   0.10859  0.28475  0.93588
E5    E   0.10859  0.71525  0.06412
E6    E   0.10859  0.71525  0.93588
E7    E   0.21525  0.39141  0.43588
E8    E   0.21525  0.39141  0.56412
E9    E   0.21525  0.60859  0.43588
E10   E   0.21525  0.60859  0.56412
E11   E   0.21718  0.21718  0.00000
E12   E   0.21718  0.78282  0.00000
E13   E   0.25000  0.25000  0.25000
E14   E   0.25000  0.25000  0.75000
E15   E   0.25000  0.75000  0.25000
E16   E   0.25000  0.75000  0.75000
E17   E   0.28282  0.28282  0.50000
E18   E   0.28282  0.71718  0.50000
E19   E   0.28475  0.10859  0.06412
E20   E   0.28475  0.10859  0.93588
E21   E   0.28475  0.89141  0.06412
E22   E   0.28475  0.89141  0.93588
E23   E   0.39141  0.21525  0.43588
E24   E   0.39141  0.21525  0.56412
E25   E   0.39141  0.78475  0.43588
E26   E   0.39141  0.78475  0.56412
E27   E   0.50000  0.00000  0.00000
E28   E   0.50000  0.00000  0.50000
E29   E   0.60859  0.21525  0.43588
E30   E   0.60859  0.21525  0.56412
E31   E   0.60859  0.78475  0.43588
E32   E   0.60859  0.78475  0.56412
E33   E   0.71525  0.10859  0.06412
E34   E   0.71525  0.10859  0.93588
E35   E   0.71525  0.89141  0.06412
E36   E   0.71525  0.89141  0.93588
E37   E   0.71718  0.28282  0.50000
E38   E   0.71718  0.71718  0.50000
E39   E   0.75000  0.25000  0.25000
E40   E   0.75000  0.25000  0.75000
E41   E   0.75000  0.75000  0.25000
E42   E   0.75000  0.75000  0.75000
E43   E   0.78282  0.21718  0.00000
E44   E   0.78282  0.78282  0.00000
E45   E   0.78475  0.39141  0.43588
E46   E   0.78475  0.39141  0.56412
E47   E   0.78475  0.60859  0.43588
E48   E   0.78475  0.60859  0.56412
E49   E   0.89141  0.28475  0.06412
E50   E   0.89141  0.28475  0.93588
E51   E   0.89141  0.71525  0.06412
E52   E   0.89141  0.71525  0.93588
loop_
