data_mhg_P4/mbm  hall_number: 406, V_con: 6, EC_con: 6
_audit_creation_date              2025-03-06
_audit_creation_method            'MOFbuilder_1.0'
_symmetry_space_group_name_H-M    'P1'
_symmetry_Int_Tables_number       1
_symmetry_cell_setting            triclinic
loop_
_symmetry_equiv_pos_as_xyz
  x,y,z
_cell_length_a                    32.4794
_cell_length_b                    32.4794
_cell_length_c                    9.9999
_cell_angle_alpha                 90.0
_cell_angle_beta                  90.0
_cell_angle_gamma                 90.0
loop_
_atom_site_label
_atom_site_type_symbol
_atom_site_fract_x
_atom_site_fract_y
_atom_site_fract_z
V1    V   0.00000  0.50000  0.00000
V2    V   0.50000  0.00000  0.00000
EC1    EC   0.07969  0.20260  0.00000
EC2    EC   0.20260  0.92031  0.00000
EC3    EC   0.29740  0.42031  0.00000
EC4    EC   0.42031  0.70260  0.00000
EC5    EC   0.57969  0.29740  0.00000
EC6    EC   0.70260  0.57969  0.00000
EC7    EC   0.79740  0.07969  0.00000
EC8    EC   0.92031  0.79740  0.00000
E1    E   0.00000  0.50000  0.50000
E2    E   0.03984  0.35130  0.00000
E3    E   0.06146  0.85886  0.00000
E4    E   0.07969  0.20260  0.50000
E5    E   0.14114  0.06146  0.00000
E6    E   0.14870  0.46016  0.00000
E7    E   0.18854  0.31146  0.00000
E8    E   0.18854  0.31146  0.00000
E9    E   0.20260  0.92031  0.50000
E10   E   0.29740  0.42031  0.50000
E11   E   0.31146  0.81146  0.00000
E12   E   0.31146  0.81146  0.00000
E13   E   0.35130  0.96016  0.00000
E14   E   0.35886  0.56146  0.00000
E15   E   0.42031  0.70260  0.50000
E16   E   0.43854  0.35886  0.00000
E17   E   0.46016  0.85130  0.00000
E18   E   0.50000  0.00000  0.50000
E19   E   0.53984  0.14870  0.00000
E20   E   0.56146  0.64114  0.00000
E21   E   0.57969  0.29740  0.50000
E22   E   0.64114  0.43854  0.00000
E23   E   0.64870  0.03984  0.00000
E24   E   0.68854  0.18854  0.00000
E25   E   0.68854  0.18854  0.00000
E26   E   0.70260  0.57969  0.50000
E27   E   0.79740  0.07969  0.50000
E28   E   0.81146  0.68854  0.00000
E29   E   0.81146  0.68854  0.00000
E30   E   0.85130  0.53984  0.00000
E31   E   0.85886  0.93854  0.00000
E32   E   0.92031  0.79740  0.50000
E33   E   0.93854  0.14114  0.00000
E34   E   0.96016  0.64870  0.00000
loop_
