data_mjd_P6422  hall_number: 475, V_con: 7
_audit_creation_date              2025-03-06
_audit_creation_method            'MOFbuilder_1.0'
_symmetry_space_group_name_H-M    'P1'
_symmetry_Int_Tables_number       1
_symmetry_cell_setting            triclinic
loop_
_symmetry_equiv_pos_as_xyz
  x,y,z
_cell_length_a                    34.8153
_cell_length_b                    34.8153
_cell_length_c                    9.825099999999999
_cell_angle_alpha                 90.0
_cell_angle_beta                  90.0
_cell_angle_gamma                 120.0
loop_
_atom_site_label
_atom_site_type_symbol
_atom_site_fract_x
_atom_site_fract_y
_atom_site_fract_z
V1    V   0.16738  0.58369  0.33333
V2    V   0.16738  0.58369  0.33333
V3    V   0.41631  0.58369  0.66667
V4    V   0.41631  0.83262  0.00000
V5    V   0.41631  0.58369  0.66667
V6    V   0.41631  0.83262  0.00000
V7    V   0.58369  0.16738  0.00000
V8    V   0.58369  0.41631  0.66667
V9    V   0.58369  0.16738  0.00000
V10   V   0.58369  0.41631  0.66667
V11   V   0.83262  0.41631  0.33333
V12   V   0.83262  0.41631  0.33333
E1    E   0.00000  0.50000  0.33333
E2    E   0.16738  0.58369  0.83333
E3    E   0.16738  0.58369  0.83333
E4    E   0.29184  0.58369  0.00000
E5    E   0.29184  0.58369  0.50000
E6    E   0.29184  0.70815  0.16666
E7    E   0.29184  0.70815  0.66666
E8    E   0.29185  0.58369  0.50000
E9    E   0.29185  0.58369  1.00000
E10   E   0.29185  0.70816  0.16667
E11   E   0.29185  0.70816  0.66667
E12   E   0.41631  0.58369  0.16667
E13   E   0.41631  0.70815  0.33334
E14   E   0.41631  0.70815  0.83334
E15   E   0.41631  0.70816  0.33333
E16   E   0.41631  0.70816  0.83333
E17   E   0.41631  0.83262  0.50000
E18   E   0.41631  0.58369  0.16667
E19   E   0.41631  0.83262  0.50000
E20   E   0.50000  0.00000  0.00000
E21   E   0.50000  0.50000  0.66667
E22   E   0.58369  0.16738  0.50000
E23   E   0.58369  0.41631  0.16667
E24   E   0.58369  0.16738  0.50000
E25   E   0.58369  0.29184  0.33333
E26   E   0.58369  0.29184  0.83333
E27   E   0.58369  0.29185  0.33334
E28   E   0.58369  0.29185  0.83334
E29   E   0.58369  0.41631  0.16667
E30   E   0.70815  0.29184  0.16667
E31   E   0.70815  0.29184  0.66667
E32   E   0.70815  0.41631  0.50000
E33   E   0.70815  0.41631  1.00000
E34   E   0.70816  0.29185  0.16666
E35   E   0.70816  0.29185  0.66666
E36   E   0.70816  0.41631  0.00000
E37   E   0.70816  0.41631  0.50000
E38   E   0.83262  0.41631  0.83333
E39   E   0.83262  0.41631  0.83333
loop_
