data_mmg_Imma  hall_number: 343, V_con: 7, EC_con: 3
_audit_creation_date              2025-03-06
_audit_creation_method            'MOFbuilder_1.0'
_symmetry_space_group_name_H-M    'P1'
_symmetry_Int_Tables_number       1
_symmetry_cell_setting            triclinic
loop_
_symmetry_equiv_pos_as_xyz
  x,y,z
_cell_length_a                    17.4029
_cell_length_b                    16.1345
_cell_length_c                    21.817600000000002
_cell_angle_alpha                 90.0
_cell_angle_beta                  90.0
_cell_angle_gamma                 90.0
loop_
_atom_site_label
_atom_site_type_symbol
_atom_site_fract_x
_atom_site_fract_y
_atom_site_fract_z
V1    V   0.00000  0.25000  0.36380
V2    V   0.00000  0.75000  0.63620
V3    V   0.50000  0.25000  0.13620
V4    V   0.50000  0.75000  0.86380
EC1    EC   0.00000  0.25000  0.90601
EC2    EC   0.00000  0.75000  0.09399
EC3    EC   0.50000  0.25000  0.59399
EC4    EC   0.50000  0.75000  0.40601
E1    E   0.00000  0.00000  0.22890
E2    E   0.00000  0.00000  0.50000
E3    E   0.00000  0.00000  0.77110
E4    E   0.00000  0.25000  0.13490
E5    E   0.00000  0.50000  0.22890
E6    E   0.00000  0.50000  0.50000
E7    E   0.00000  0.50000  0.77110
E8    E   0.00000  0.75000  0.86510
E9    E   0.25000  0.25000  0.25000
E10   E   0.25000  0.75000  0.75000
E11   E   0.50000  0.00000  0.00000
E12   E   0.50000  0.00000  0.27110
E13   E   0.50000  0.00000  0.72890
E14   E   0.50000  0.25000  0.36510
E15   E   0.50000  0.50000  0.00000
E16   E   0.50000  0.50000  0.27110
E17   E   0.50000  0.50000  0.72890
E18   E   0.50000  0.75000  0.63490
E19   E   0.75000  0.25000  0.25000
E20   E   0.75000  0.75000  0.75000
loop_
