data_moa_Cmmm  hall_number: 310, V_con: 4, EC_con: 3
_audit_creation_date              2025-03-06
_audit_creation_method            'MOFbuilder_1.0'
_symmetry_space_group_name_H-M    'P1'
_symmetry_Int_Tables_number       1
_symmetry_cell_setting            triclinic
loop_
_symmetry_equiv_pos_as_xyz
  x,y,z
_cell_length_a                    18.9053
_cell_length_b                    53.7291
_cell_length_c                    24.662799999999997
_cell_angle_alpha                 90.0
_cell_angle_beta                  90.0
_cell_angle_gamma                 90.0
loop_
_atom_site_label
_atom_site_type_symbol
_atom_site_fract_x
_atom_site_fract_y
_atom_site_fract_z
V1    V   0.00000  0.28036  0.50000
V2    V   0.00000  0.71964  0.50000
V3    V   0.50000  0.21964  0.50000
V4    V   0.50000  0.78036  0.50000
EC1    EC   0.00000  0.40694  0.20274
EC2    EC   0.00000  0.40694  0.79726
EC3    EC   0.00000  0.59306  0.20274
EC4    EC   0.00000  0.59306  0.79726
EC5    EC   0.50000  0.09306  0.20274
EC6    EC   0.50000  0.09306  0.79726
EC7    EC   0.50000  0.90694  0.20274
EC8    EC   0.50000  0.90694  0.79726
E1    E   0.00000  0.34365  0.35137
E2    E   0.00000  0.34365  0.64863
E3    E   0.00000  0.40694  0.00000
E4    E   0.00000  0.50000  0.20274
E5    E   0.00000  0.50000  0.79726
E6    E   0.00000  0.59306  0.00000
E7    E   0.00000  0.65635  0.35137
E8    E   0.00000  0.65635  0.64863
E9    E   0.25000  0.25000  0.50000
E10   E   0.25000  0.75000  0.50000
E11   E   0.50000  0.00000  0.20274
E12   E   0.50000  0.00000  0.79726
E13   E   0.50000  0.09306  0.00000
E14   E   0.50000  0.15635  0.35137
E15   E   0.50000  0.15635  0.64863
E16   E   0.50000  0.84365  0.35137
E17   E   0.50000  0.84365  0.64863
E18   E   0.50000  0.90694  0.00000
E19   E   0.75000  0.25000  0.50000
E20   E   0.75000  0.75000  0.50000
loop_
