data_mog-e_Cmmm  hall_number: 310, V_con: 6, EC_con: 5
_audit_creation_date              2025-03-06
_audit_creation_method            'MOFbuilder_1.0'
_symmetry_space_group_name_H-M    'P1'
_symmetry_Int_Tables_number       1
_symmetry_cell_setting            triclinic
loop_
_symmetry_equiv_pos_as_xyz
  x,y,z
_cell_length_a                    48.2848
_cell_length_b                    19.9998
_cell_length_c                    19.9999
_cell_angle_alpha                 90.0
_cell_angle_beta                  90.0
_cell_angle_gamma                 90.0
loop_
_atom_site_label
_atom_site_type_symbol
_atom_site_fract_x
_atom_site_fract_y
_atom_site_fract_z
V1    V   0.25000  0.25000  0.00000
V2    V   0.25000  0.75000  0.00000
V3    V   0.75000  0.25000  0.00000
V4    V   0.75000  0.75000  0.00000
EC1    EC   0.10355  0.50000  0.25000
EC2    EC   0.10355  0.50000  0.75000
EC3    EC   0.39645  0.00000  0.25000
EC4    EC   0.39645  0.00000  0.75000
EC5    EC   0.60355  0.00000  0.25000
EC6    EC   0.60355  0.00000  0.75000
EC7    EC   0.89645  0.50000  0.25000
EC8    EC   0.89645  0.50000  0.75000
E1    E   0.00000  0.50000  0.25000
E2    E   0.00000  0.50000  0.75000
E3    E   0.10355  0.50000  0.00000
E4    E   0.10355  0.50000  0.50000
E5    E   0.17678  0.37500  0.12500
E6    E   0.17678  0.37500  0.87500
E7    E   0.17678  0.62500  0.12500
E8    E   0.17678  0.62500  0.87500
E9    E   0.25000  0.00000  0.00000
E10   E   0.25000  0.50000  0.00000
E11   E   0.32322  0.12500  0.12500
E12   E   0.32322  0.12500  0.87500
E13   E   0.32322  0.87500  0.12500
E14   E   0.32322  0.87500  0.87500
E15   E   0.39645  0.00000  0.00000
E16   E   0.39645  0.00000  0.50000
E17   E   0.50000  0.00000  0.25000
E18   E   0.50000  0.00000  0.75000
E19   E   0.60355  0.00000  0.00000
E20   E   0.60355  0.00000  0.50000
E21   E   0.67678  0.12500  0.12500
E22   E   0.67678  0.12500  0.87500
E23   E   0.67678  0.87500  0.12500
E24   E   0.67678  0.87500  0.87500
E25   E   0.75000  0.00000  0.00000
E26   E   0.75000  0.50000  0.00000
E27   E   0.82322  0.37500  0.12500
E28   E   0.82322  0.37500  0.87500
E29   E   0.82322  0.62500  0.12500
E30   E   0.82322  0.62500  0.87500
E31   E   0.89645  0.50000  0.00000
E32   E   0.89645  0.50000  0.50000
loop_
