data_msp_I12/a1  hall_number: 107, V_con: 4
_audit_creation_date              2025-03-06
_audit_creation_method            'MOFbuilder_1.0'
_symmetry_space_group_name_H-M    'P1'
_symmetry_Int_Tables_number       1
_symmetry_cell_setting            triclinic
loop_
_symmetry_equiv_pos_as_xyz
  x,y,z
_cell_length_a                    14.817400000000001
_cell_length_b                    23.7324
_cell_length_c                    23.5439
_cell_angle_alpha                 90.0
_cell_angle_beta                  91.3715
_cell_angle_gamma                 90.0
loop_
_atom_site_label
_atom_site_type_symbol
_atom_site_fract_x
_atom_site_fract_y
_atom_site_fract_z
V1    V   0.00384  0.15004  0.64901
V2    V   0.00384  0.34996  0.35099
V3    V   0.49616  0.15004  0.14901
V4    V   0.49616  0.34996  0.85099
V5    V   0.50384  0.65004  0.14901
V6    V   0.50384  0.84996  0.85099
V7    V   0.99616  0.65004  0.64901
V8    V   0.99616  0.84996  0.35099
E1    E   0.00000  0.00000  0.50000
E2    E   0.00000  0.50000  0.50000
E3    E   0.25000  0.15004  0.00000
E4    E   0.25000  0.15004  0.50000
E5    E   0.25000  0.25000  0.25000
E6    E   0.25000  0.25000  0.75000
E7    E   0.25000  0.34996  0.00000
E8    E   0.25000  0.34996  0.50000
E9    E   0.25000  0.75000  0.25000
E10   E   0.25000  0.75000  0.75000
E11   E   0.50000  0.00000  0.00000
E12   E   0.50000  0.50000  0.00000
E13   E   0.75000  0.25000  0.25000
E14   E   0.75000  0.25000  0.75000
E15   E   0.75000  0.65004  0.00000
E16   E   0.75000  0.65004  0.50000
E17   E   0.75000  0.75000  0.25000
E18   E   0.75000  0.75000  0.75000
E19   E   0.75000  0.84996  0.00000
E20   E   0.75000  0.84996  0.50000
loop_
