data_mst_Fmmm  hall_number: 334, V_con: 5, EC_con: 4
_audit_creation_date              2025-03-06
_audit_creation_method            'MOFbuilder_1.0'
_symmetry_space_group_name_H-M    'P1'
_symmetry_Int_Tables_number       1
_symmetry_cell_setting            triclinic
loop_
_symmetry_equiv_pos_as_xyz
  x,y,z
_cell_length_a                    52.724399999999996
_cell_length_b                    18.0831
_cell_length_c                    28.5439
_cell_angle_alpha                 90.0
_cell_angle_beta                  90.0
_cell_angle_gamma                 90.0
loop_
_atom_site_label
_atom_site_type_symbol
_atom_site_fract_x
_atom_site_fract_y
_atom_site_fract_z
V1    V   0.16426  0.00000  0.17517
V2    V   0.16426  0.00000  0.82483
V3    V   0.16426  0.50000  0.32483
V4    V   0.16426  0.50000  0.67517
V5    V   0.33574  0.00000  0.32483
V6    V   0.33574  0.00000  0.67517
V7    V   0.33574  0.50000  0.17517
V8    V   0.33574  0.50000  0.82483
V9    V   0.66426  0.00000  0.32483
V10   V   0.66426  0.00000  0.67517
V11   V   0.66426  0.50000  0.17517
V12   V   0.66426  0.50000  0.82483
V13   V   0.83574  0.00000  0.17517
V14   V   0.83574  0.00000  0.82483
V15   V   0.83574  0.50000  0.32483
V16   V   0.83574  0.50000  0.67517
EC1    EC   0.00000  0.00000  0.00000
EC2    EC   0.00000  0.50000  0.50000
EC3    EC   0.50000  0.00000  0.50000
EC4    EC   0.50000  0.50000  0.00000
E1    E   0.08213  0.00000  0.08758
E2    E   0.08213  0.00000  0.91242
E3    E   0.08213  0.50000  0.41242
E4    E   0.08213  0.50000  0.58758
E5    E   0.16426  0.00000  0.00000
E6    E   0.16426  0.25000  0.25000
E7    E   0.16426  0.25000  0.75000
E8    E   0.16426  0.50000  0.50000
E9    E   0.16426  0.75000  0.25000
E10   E   0.16426  0.75000  0.75000
E11   E   0.25000  0.00000  0.25000
E12   E   0.25000  0.00000  0.75000
E13   E   0.25000  0.50000  0.25000
E14   E   0.25000  0.50000  0.75000
E15   E   0.33574  0.00000  0.50000
E16   E   0.33574  0.25000  0.25000
E17   E   0.33574  0.25000  0.75000
E18   E   0.33574  0.50000  0.00000
E19   E   0.33574  0.75000  0.25000
E20   E   0.33574  0.75000  0.75000
E21   E   0.41787  0.00000  0.41242
E22   E   0.41787  0.00000  0.58758
E23   E   0.41787  0.50000  0.08758
E24   E   0.41787  0.50000  0.91242
E25   E   0.58213  0.00000  0.41242
E26   E   0.58213  0.00000  0.58758
E27   E   0.58213  0.50000  0.08758
E28   E   0.58213  0.50000  0.91242
E29   E   0.66426  0.00000  0.50000
E30   E   0.66426  0.25000  0.25000
E31   E   0.66426  0.25000  0.75000
E32   E   0.66426  0.50000  0.00000
E33   E   0.66426  0.75000  0.25000
E34   E   0.66426  0.75000  0.75000
E35   E   0.75000  0.00000  0.25000
E36   E   0.75000  0.00000  0.75000
E37   E   0.75000  0.50000  0.25000
E38   E   0.75000  0.50000  0.75000
E39   E   0.83574  0.00000  0.00000
E40   E   0.83574  0.25000  0.25000
E41   E   0.83574  0.25000  0.75000
E42   E   0.83574  0.50000  0.50000
E43   E   0.83574  0.75000  0.25000
E44   E   0.83574  0.75000  0.75000
E45   E   0.91787  0.00000  0.08758
E46   E   0.91787  0.00000  0.91242
E47   E   0.91787  0.50000  0.41242
E48   E   0.91787  0.50000  0.58758
loop_
