data_mvy_Pnnm  hall_number: 275, V_con: 4, EC_con: 4
_audit_creation_date              2025-03-06
_audit_creation_method            'MOFbuilder_1.0'
_symmetry_space_group_name_H-M    'P1'
_symmetry_Int_Tables_number       1
_symmetry_cell_setting            triclinic
loop_
_symmetry_equiv_pos_as_xyz
  x,y,z
_cell_length_a                    15.7737
_cell_length_b                    29.7562
_cell_length_c                    44.46170000000001
_cell_angle_alpha                 90.0
_cell_angle_beta                  90.0
_cell_angle_gamma                 90.0
loop_
_atom_site_label
_atom_site_type_symbol
_atom_site_fract_x
_atom_site_fract_y
_atom_site_fract_z
V1    V   0.07084  0.33622  0.28809
V2    V   0.07084  0.33622  0.71191
V3    V   0.42916  0.83622  0.21191
V4    V   0.42916  0.83622  0.78809
V5    V   0.57084  0.16378  0.21191
V6    V   0.57084  0.16378  0.78809
V7    V   0.92916  0.66378  0.28809
V8    V   0.92916  0.66378  0.71191
EC1    EC   0.25000  0.39669  0.50000
EC2    EC   0.25000  0.89669  0.00000
EC3    EC   0.75000  0.10331  0.00000
EC4    EC   0.75000  0.60331  0.50000
E1    E   0.00000  0.00000  0.00000
E2    E   0.00000  0.50000  0.28809
E3    E   0.00000  0.50000  0.50000
E4    E   0.00000  0.50000  0.71191
E5    E   0.16042  0.36646  0.39404
E6    E   0.16042  0.36646  0.60596
E7    E   0.17916  0.75000  0.25000
E8    E   0.17916  0.75000  0.75000
E9    E   0.32084  0.25000  0.25000
E10   E   0.32084  0.25000  0.75000
E11   E   0.33958  0.86646  0.10596
E12   E   0.33958  0.86646  0.89404
E13   E   0.50000  0.00000  0.00000
E14   E   0.50000  0.00000  0.21191
E15   E   0.50000  0.00000  0.78809
E16   E   0.50000  0.50000  0.50000
E17   E   0.66042  0.13354  0.10596
E18   E   0.66042  0.13354  0.89404
E19   E   0.67916  0.75000  0.25000
E20   E   0.67916  0.75000  0.75000
E21   E   0.82084  0.25000  0.25000
E22   E   0.82084  0.25000  0.75000
E23   E   0.83958  0.63354  0.39404
E24   E   0.83958  0.63354  0.60596
loop_
