data_myc_I213  hall_number: 493, V_con: 6, EC_con: 3
_audit_creation_date              2025-03-06
_audit_creation_method            'MOFbuilder_1.0'
_symmetry_space_group_name_H-M    'P1'
_symmetry_Int_Tables_number       1
_symmetry_cell_setting            triclinic
loop_
_symmetry_equiv_pos_as_xyz
  x,y,z
_cell_length_a                    41.169900000000005
_cell_length_b                    41.169900000000005
_cell_length_c                    41.169900000000005
_cell_angle_alpha                 90.0
_cell_angle_beta                  90.0
_cell_angle_gamma                 90.0
loop_
_atom_site_label
_atom_site_type_symbol
_atom_site_fract_x
_atom_site_fract_y
_atom_site_fract_z
V1    V   0.17512  0.17512  0.17512
V2    V   0.17512  0.82488  0.32488
V3    V   0.32488  0.17512  0.82488
V4    V   0.32488  0.82488  0.67512
V5    V   0.67512  0.32488  0.82488
V6    V   0.67512  0.67512  0.67512
V7    V   0.82488  0.32488  0.17512
V8    V   0.82488  0.67512  0.32488
EC1    EC   0.05706  0.38345  0.21587
EC2    EC   0.05706  0.61655  0.28413
EC3    EC   0.11655  0.21587  0.94294
EC4    EC   0.11655  0.78413  0.55706
EC5    EC   0.21587  0.05706  0.38345
EC6    EC   0.21587  0.94294  0.11655
EC7    EC   0.28413  0.05706  0.61655
EC8    EC   0.28413  0.94294  0.88345
EC9    EC   0.38345  0.21587  0.05706
EC10   EC   0.38345  0.78413  0.44294
EC11   EC   0.44294  0.38345  0.78413
EC12   EC   0.44294  0.61655  0.71587
EC13   EC   0.55706  0.11655  0.78413
EC14   EC   0.55706  0.88345  0.71587
EC15   EC   0.61655  0.28413  0.05706
EC16   EC   0.61655  0.71587  0.44294
EC17   EC   0.71587  0.44294  0.61655
EC18   EC   0.71587  0.55706  0.88345
EC19   EC   0.78413  0.44294  0.38345
EC20   EC   0.78413  0.55706  0.11655
EC21   EC   0.88345  0.28413  0.94294
EC22   EC   0.88345  0.71587  0.55706
EC23   EC   0.94294  0.11655  0.21587
EC24   EC   0.94294  0.88345  0.28413
E1    E   0.00000  0.25000  0.94294
E2    E   0.00000  0.75000  0.55706
E3    E   0.05706  0.50000  0.25000
E4    E   0.05903  0.14584  0.19550
E5    E   0.05903  0.85416  0.30450
E6    E   0.11609  0.27928  0.19550
E7    E   0.11609  0.72072  0.30450
E8    E   0.14584  0.19550  0.05903
E9    E   0.14584  0.80450  0.44097
E10   E   0.19550  0.05903  0.14584
E11   E   0.19550  0.11609  0.27928
E12   E   0.19550  0.88391  0.22072
E13   E   0.19550  0.94097  0.35416
E14   E   0.22072  0.19550  0.88391
E15   E   0.22072  0.80450  0.61609
E16   E   0.25000  0.05706  0.50000
E17   E   0.25000  0.94294  0.00000
E18   E   0.27928  0.19550  0.11609
E19   E   0.27928  0.80450  0.38391
E20   E   0.30450  0.05903  0.85416
E21   E   0.30450  0.11609  0.72072
E22   E   0.30450  0.88391  0.77928
E23   E   0.30450  0.94097  0.64584
E24   E   0.35416  0.19550  0.94097
E25   E   0.35416  0.80450  0.55903
E26   E   0.38391  0.27928  0.80450
E27   E   0.38391  0.72072  0.69550
E28   E   0.44097  0.14584  0.80450
E29   E   0.44097  0.85416  0.69550
E30   E   0.44294  0.50000  0.75000
E31   E   0.50000  0.25000  0.05706
E32   E   0.50000  0.75000  0.44294
E33   E   0.55706  0.00000  0.75000
E34   E   0.55903  0.35416  0.80450
E35   E   0.55903  0.64584  0.69550
E36   E   0.61609  0.22072  0.80450
E37   E   0.61609  0.77928  0.69550
E38   E   0.64584  0.30450  0.94097
E39   E   0.64584  0.69550  0.55903
E40   E   0.69550  0.38391  0.72072
E41   E   0.69550  0.44097  0.85416
E42   E   0.69550  0.55903  0.64584
E43   E   0.69550  0.61609  0.77928
E44   E   0.72072  0.30450  0.11609
E45   E   0.72072  0.69550  0.38391
E46   E   0.75000  0.44294  0.50000
E47   E   0.75000  0.55706  0.00000
E48   E   0.77928  0.30450  0.88391
E49   E   0.77928  0.69550  0.61609
E50   E   0.80450  0.38391  0.27928
E51   E   0.80450  0.44097  0.14584
E52   E   0.80450  0.55903  0.35416
E53   E   0.80450  0.61609  0.22072
E54   E   0.85416  0.30450  0.05903
E55   E   0.85416  0.69550  0.44097
E56   E   0.88391  0.22072  0.19550
E57   E   0.88391  0.77928  0.30450
E58   E   0.94097  0.35416  0.19550
E59   E   0.94097  0.64584  0.30450
E60   E   0.94294  0.00000  0.25000
loop_
