data_naz-x_Fm-3c  hall_number: 524, V_con: 9
_audit_creation_date              2025-03-06
_audit_creation_method            'MOFbuilder_1.0'
_symmetry_space_group_name_H-M    'P1'
_symmetry_Int_Tables_number       1
_symmetry_cell_setting            triclinic
loop_
_symmetry_equiv_pos_as_xyz
  x,y,z
_cell_length_a                    45.5963
_cell_length_b                    45.5963
_cell_length_c                    45.5963
_cell_angle_alpha                 90.0
_cell_angle_beta                  90.0
_cell_angle_gamma                 90.0
loop_
_atom_site_label
_atom_site_type_symbol
_atom_site_fract_x
_atom_site_fract_y
_atom_site_fract_z
V1    V   0.00000  0.11221  0.17610
V2    V   0.00000  0.11221  0.82390
V3    V   0.00000  0.17610  0.38779
V4    V   0.00000  0.17610  0.61221
V5    V   0.00000  0.32390  0.11221
V6    V   0.00000  0.32390  0.88779
V7    V   0.00000  0.38779  0.32390
V8    V   0.00000  0.38779  0.67610
V9    V   0.00000  0.61221  0.32390
V10   V   0.00000  0.61221  0.67610
V11   V   0.00000  0.67610  0.11221
V12   V   0.00000  0.67610  0.88779
V13   V   0.00000  0.82390  0.38779
V14   V   0.00000  0.82390  0.61221
V15   V   0.00000  0.88779  0.17610
V16   V   0.00000  0.88779  0.82390
V17   V   0.11221  0.00000  0.32390
V18   V   0.11221  0.00000  0.67610
V19   V   0.11221  0.17610  0.00000
V20   V   0.11221  0.32390  0.50000
V21   V   0.11221  0.50000  0.17610
V22   V   0.11221  0.50000  0.82390
V23   V   0.11221  0.67610  0.50000
V24   V   0.11221  0.82390  0.00000
V25   V   0.17610  0.00000  0.11221
V26   V   0.17610  0.00000  0.88779
V27   V   0.17610  0.11221  0.50000
V28   V   0.17610  0.38779  0.00000
V29   V   0.17610  0.50000  0.38779
V30   V   0.17610  0.50000  0.61221
V31   V   0.17610  0.61221  0.00000
V32   V   0.17610  0.88779  0.50000
V33   V   0.32390  0.00000  0.38779
V34   V   0.32390  0.00000  0.61221
V35   V   0.32390  0.11221  0.00000
V36   V   0.32390  0.38779  0.50000
V37   V   0.32390  0.50000  0.11221
V38   V   0.32390  0.50000  0.88779
V39   V   0.32390  0.61221  0.50000
V40   V   0.32390  0.88779  0.00000
V41   V   0.38779  0.00000  0.17610
V42   V   0.38779  0.00000  0.82390
V43   V   0.38779  0.17610  0.50000
V44   V   0.38779  0.32390  0.00000
V45   V   0.38779  0.50000  0.32390
V46   V   0.38779  0.50000  0.67610
V47   V   0.38779  0.67610  0.00000
V48   V   0.38779  0.82390  0.50000
V49   V   0.50000  0.11221  0.32390
V50   V   0.50000  0.11221  0.67610
V51   V   0.50000  0.17610  0.11221
V52   V   0.50000  0.17610  0.88779
V53   V   0.50000  0.32390  0.38779
V54   V   0.50000  0.32390  0.61221
V55   V   0.50000  0.38779  0.17610
V56   V   0.50000  0.38779  0.82390
V57   V   0.50000  0.61221  0.17610
V58   V   0.50000  0.61221  0.82390
V59   V   0.50000  0.67610  0.38779
V60   V   0.50000  0.67610  0.61221
V61   V   0.50000  0.82390  0.11221
V62   V   0.50000  0.82390  0.88779
V63   V   0.50000  0.88779  0.32390
V64   V   0.50000  0.88779  0.67610
V65   V   0.61221  0.00000  0.17610
V66   V   0.61221  0.00000  0.82390
V67   V   0.61221  0.17610  0.50000
V68   V   0.61221  0.32390  0.00000
V69   V   0.61221  0.50000  0.32390
V70   V   0.61221  0.50000  0.67610
V71   V   0.61221  0.67610  0.00000
V72   V   0.61221  0.82390  0.50000
V73   V   0.67610  0.00000  0.38779
V74   V   0.67610  0.00000  0.61221
V75   V   0.67610  0.11221  0.00000
V76   V   0.67610  0.38779  0.50000
V77   V   0.67610  0.50000  0.11221
V78   V   0.67610  0.50000  0.88779
V79   V   0.67610  0.61221  0.50000
V80   V   0.67610  0.88779  0.00000
V81   V   0.82390  0.00000  0.11221
V82   V   0.82390  0.00000  0.88779
V83   V   0.82390  0.11221  0.50000
V84   V   0.82390  0.38779  0.00000
V85   V   0.82390  0.50000  0.38779
V86   V   0.82390  0.50000  0.61221
V87   V   0.82390  0.61221  0.00000
V88   V   0.82390  0.88779  0.50000
V89   V   0.88779  0.00000  0.32390
V90   V   0.88779  0.00000  0.67610
V91   V   0.88779  0.17610  0.00000
V92   V   0.88779  0.32390  0.50000
V93   V   0.88779  0.50000  0.17610
V94   V   0.88779  0.50000  0.82390
V95   V   0.88779  0.67610  0.50000
V96   V   0.88779  0.82390  0.00000
E1    E   0.00000  0.00000  0.17610
E2    E   0.00000  0.00000  0.32390
E3    E   0.00000  0.00000  0.67610
E4    E   0.00000  0.00000  0.82390
E5    E   0.00000  0.14416  0.28195
E6    E   0.00000  0.14416  0.71805
E7    E   0.00000  0.17610  0.00000
E8    E   0.00000  0.17610  0.50000
E9    E   0.00000  0.21805  0.14416
E10   E   0.00000  0.21805  0.85584
E11   E   0.00000  0.28195  0.35584
E12   E   0.00000  0.28195  0.64416
E13   E   0.00000  0.32390  0.00000
E14   E   0.00000  0.32390  0.50000
E15   E   0.00000  0.35584  0.21805
E16   E   0.00000  0.35584  0.78195
E17   E   0.00000  0.50000  0.17610
E18   E   0.00000  0.50000  0.32390
E19   E   0.00000  0.50000  0.67610
E20   E   0.00000  0.50000  0.82390
E21   E   0.00000  0.64416  0.21805
E22   E   0.00000  0.64416  0.78195
E23   E   0.00000  0.67610  0.00000
E24   E   0.00000  0.67610  0.50000
E25   E   0.00000  0.71805  0.35584
E26   E   0.00000  0.71805  0.64416
E27   E   0.00000  0.78195  0.14416
E28   E   0.00000  0.78195  0.85584
E29   E   0.00000  0.82390  0.00000
E30   E   0.00000  0.82390  0.50000
E31   E   0.00000  0.85584  0.28195
E32   E   0.00000  0.85584  0.71805
E33   E   0.05610  0.05610  0.25000
E34   E   0.05610  0.05610  0.75000
E35   E   0.05610  0.08805  0.35584
E36   E   0.05610  0.08805  0.64416
E37   E   0.05610  0.14416  0.08805
E38   E   0.05610  0.14416  0.91195
E39   E   0.05610  0.25000  0.05610
E40   E   0.05610  0.25000  0.44390
E41   E   0.05610  0.25000  0.55610
E42   E   0.05610  0.25000  0.94390
E43   E   0.05610  0.35584  0.41195
E44   E   0.05610  0.35584  0.58805
E45   E   0.05610  0.41195  0.14416
E46   E   0.05610  0.41195  0.85584
E47   E   0.05610  0.44390  0.25000
E48   E   0.05610  0.44390  0.75000
E49   E   0.05610  0.55610  0.25000
E50   E   0.05610  0.55610  0.75000
E51   E   0.05610  0.58805  0.14416
E52   E   0.05610  0.58805  0.85584
E53   E   0.05610  0.64416  0.41195
E54   E   0.05610  0.64416  0.58805
E55   E   0.05610  0.75000  0.05610
E56   E   0.05610  0.75000  0.44390
E57   E   0.05610  0.75000  0.55610
E58   E   0.05610  0.75000  0.94390
E59   E   0.05610  0.85584  0.08805
E60   E   0.05610  0.85584  0.91195
E61   E   0.05610  0.91195  0.35584
E62   E   0.05610  0.91195  0.64416
E63   E   0.05610  0.94390  0.25000
E64   E   0.05610  0.94390  0.75000
E65   E   0.08805  0.05610  0.14416
E66   E   0.08805  0.05610  0.85584
E67   E   0.08805  0.14416  0.44390
E68   E   0.08805  0.14416  0.55610
E69   E   0.08805  0.35584  0.05610
E70   E   0.08805  0.35584  0.94390
E71   E   0.08805  0.44390  0.35584
E72   E   0.08805  0.44390  0.64416
E73   E   0.08805  0.55610  0.35584
E74   E   0.08805  0.55610  0.64416
E75   E   0.08805  0.64416  0.05610
E76   E   0.08805  0.64416  0.94390
E77   E   0.08805  0.85584  0.44390
E78   E   0.08805  0.85584  0.55610
E79   E   0.08805  0.94390  0.14416
E80   E   0.08805  0.94390  0.85584
E81   E   0.14416  0.00000  0.21805
E82   E   0.14416  0.00000  0.78195
E83   E   0.14416  0.05610  0.41195
E84   E   0.14416  0.05610  0.58805
E85   E   0.14416  0.08805  0.05610
E86   E   0.14416  0.08805  0.94390
E87   E   0.14416  0.21805  0.50000
E88   E   0.14416  0.28195  0.00000
E89   E   0.14416  0.41195  0.44390
E90   E   0.14416  0.41195  0.55610
E91   E   0.14416  0.44390  0.08805
E92   E   0.14416  0.44390  0.91195
E93   E   0.14416  0.50000  0.28195
E94   E   0.14416  0.50000  0.71805
E95   E   0.14416  0.55610  0.08805
E96   E   0.14416  0.55610  0.91195
E97   E   0.14416  0.58805  0.44390
E98   E   0.14416  0.58805  0.55610
E99   E   0.14416  0.71805  0.00000
E100  E   0.14416  0.78195  0.50000
E101  E   0.14416  0.91195  0.05610
E102  E   0.14416  0.91195  0.94390
E103  E   0.14416  0.94390  0.41195
E104  E   0.14416  0.94390  0.58805
E105  E   0.17610  0.00000  0.00000
E106  E   0.17610  0.00000  0.50000
E107  E   0.17610  0.50000  0.00000
E108  E   0.17610  0.50000  0.50000
E109  E   0.21805  0.00000  0.35584
E110  E   0.21805  0.00000  0.64416
E111  E   0.21805  0.14416  0.00000
E112  E   0.21805  0.35584  0.50000
E113  E   0.21805  0.50000  0.14416
E114  E   0.21805  0.50000  0.85584
E115  E   0.21805  0.64416  0.50000
E116  E   0.21805  0.85584  0.00000
E117  E   0.25000  0.05610  0.05610
E118  E   0.25000  0.05610  0.44390
E119  E   0.25000  0.05610  0.55610
E120  E   0.25000  0.05610  0.94390
E121  E   0.25000  0.44390  0.05610
E122  E   0.25000  0.44390  0.44390
E123  E   0.25000  0.44390  0.55610
E124  E   0.25000  0.44390  0.94390
E125  E   0.25000  0.55610  0.05610
E126  E   0.25000  0.55610  0.44390
E127  E   0.25000  0.55610  0.55610
E128  E   0.25000  0.55610  0.94390
E129  E   0.25000  0.94390  0.05610
E130  E   0.25000  0.94390  0.44390
E131  E   0.25000  0.94390  0.55610
E132  E   0.25000  0.94390  0.94390
E133  E   0.28195  0.00000  0.14416
E134  E   0.28195  0.00000  0.85584
E135  E   0.28195  0.14416  0.50000
E136  E   0.28195  0.35584  0.00000
E137  E   0.28195  0.50000  0.35584
E138  E   0.28195  0.50000  0.64416
E139  E   0.28195  0.64416  0.00000
E140  E   0.28195  0.85584  0.50000
E141  E   0.32390  0.00000  0.00000
E142  E   0.32390  0.00000  0.50000
E143  E   0.32390  0.50000  0.00000
E144  E   0.32390  0.50000  0.50000
E145  E   0.35584  0.00000  0.28195
E146  E   0.35584  0.00000  0.71805
E147  E   0.35584  0.05610  0.08805
E148  E   0.35584  0.05610  0.91195
E149  E   0.35584  0.08805  0.44390
E150  E   0.35584  0.08805  0.55610
E151  E   0.35584  0.21805  0.00000
E152  E   0.35584  0.28195  0.50000
E153  E   0.35584  0.41195  0.05610
E154  E   0.35584  0.41195  0.94390
E155  E   0.35584  0.44390  0.41195
E156  E   0.35584  0.44390  0.58805
E157  E   0.35584  0.50000  0.21805
E158  E   0.35584  0.50000  0.78195
E159  E   0.35584  0.55610  0.41195
E160  E   0.35584  0.55610  0.58805
E161  E   0.35584  0.58805  0.05610
E162  E   0.35584  0.58805  0.94390
E163  E   0.35584  0.71805  0.50000
E164  E   0.35584  0.78195  0.00000
E165  E   0.35584  0.91195  0.44390
E166  E   0.35584  0.91195  0.55610
E167  E   0.35584  0.94390  0.08805
E168  E   0.35584  0.94390  0.91195
E169  E   0.41195  0.05610  0.35584
E170  E   0.41195  0.05610  0.64416
E171  E   0.41195  0.14416  0.05610
E172  E   0.41195  0.14416  0.94390
E173  E   0.41195  0.35584  0.44390
E174  E   0.41195  0.35584  0.55610
E175  E   0.41195  0.44390  0.14416
E176  E   0.41195  0.44390  0.85584
E177  E   0.41195  0.55610  0.14416
E178  E   0.41195  0.55610  0.85584
E179  E   0.41195  0.64416  0.44390
E180  E   0.41195  0.64416  0.55610
E181  E   0.41195  0.85584  0.05610
E182  E   0.41195  0.85584  0.94390
E183  E   0.41195  0.94390  0.35584
E184  E   0.41195  0.94390  0.64416
E185  E   0.44390  0.05610  0.25000
E186  E   0.44390  0.05610  0.75000
E187  E   0.44390  0.08805  0.14416
E188  E   0.44390  0.08805  0.85584
E189  E   0.44390  0.14416  0.41195
E190  E   0.44390  0.14416  0.58805
E191  E   0.44390  0.25000  0.05610
E192  E   0.44390  0.25000  0.44390
E193  E   0.44390  0.25000  0.55610
E194  E   0.44390  0.25000  0.94390
E195  E   0.44390  0.35584  0.08805
E196  E   0.44390  0.35584  0.91195
E197  E   0.44390  0.41195  0.35584
E198  E   0.44390  0.41195  0.64416
E199  E   0.44390  0.44390  0.25000
E200  E   0.44390  0.44390  0.75000
E201  E   0.44390  0.55610  0.25000
E202  E   0.44390  0.55610  0.75000
E203  E   0.44390  0.58805  0.35584
E204  E   0.44390  0.58805  0.64416
E205  E   0.44390  0.64416  0.08805
E206  E   0.44390  0.64416  0.91195
E207  E   0.44390  0.75000  0.05610
E208  E   0.44390  0.75000  0.44390
E209  E   0.44390  0.75000  0.55610
E210  E   0.44390  0.75000  0.94390
E211  E   0.44390  0.85584  0.41195
E212  E   0.44390  0.85584  0.58805
E213  E   0.44390  0.91195  0.14416
E214  E   0.44390  0.91195  0.85584
E215  E   0.44390  0.94390  0.25000
E216  E   0.44390  0.94390  0.75000
E217  E   0.50000  0.00000  0.17610
E218  E   0.50000  0.00000  0.32390
E219  E   0.50000  0.00000  0.67610
E220  E   0.50000  0.00000  0.82390
E221  E   0.50000  0.14416  0.21805
E222  E   0.50000  0.14416  0.78195
E223  E   0.50000  0.17610  0.00000
E224  E   0.50000  0.17610  0.50000
E225  E   0.50000  0.21805  0.35584
E226  E   0.50000  0.21805  0.64416
E227  E   0.50000  0.28195  0.14416
E228  E   0.50000  0.28195  0.85584
E229  E   0.50000  0.32390  0.00000
E230  E   0.50000  0.32390  0.50000
E231  E   0.50000  0.35584  0.28195
E232  E   0.50000  0.35584  0.71805
E233  E   0.50000  0.50000  0.17610
E234  E   0.50000  0.50000  0.32390
E235  E   0.50000  0.50000  0.67610
E236  E   0.50000  0.50000  0.82390
E237  E   0.50000  0.64416  0.28195
E238  E   0.50000  0.64416  0.71805
E239  E   0.50000  0.67610  0.00000
E240  E   0.50000  0.67610  0.50000
E241  E   0.50000  0.71805  0.14416
E242  E   0.50000  0.71805  0.85584
E243  E   0.50000  0.78195  0.35584
E244  E   0.50000  0.78195  0.64416
E245  E   0.50000  0.82390  0.00000
E246  E   0.50000  0.82390  0.50000
E247  E   0.50000  0.85584  0.21805
E248  E   0.50000  0.85584  0.78195
E249  E   0.55610  0.05610  0.25000
E250  E   0.55610  0.05610  0.75000
E251  E   0.55610  0.08805  0.14416
E252  E   0.55610  0.08805  0.85584
E253  E   0.55610  0.14416  0.41195
E254  E   0.55610  0.14416  0.58805
E255  E   0.55610  0.25000  0.05610
E256  E   0.55610  0.25000  0.44390
E257  E   0.55610  0.25000  0.55610
E258  E   0.55610  0.25000  0.94390
E259  E   0.55610  0.35584  0.08805
E260  E   0.55610  0.35584  0.91195
E261  E   0.55610  0.41195  0.35584
E262  E   0.55610  0.41195  0.64416
E263  E   0.55610  0.44390  0.25000
E264  E   0.55610  0.44390  0.75000
E265  E   0.55610  0.55610  0.25000
E266  E   0.55610  0.55610  0.75000
E267  E   0.55610  0.58805  0.35584
E268  E   0.55610  0.58805  0.64416
E269  E   0.55610  0.64416  0.08805
E270  E   0.55610  0.64416  0.91195
E271  E   0.55610  0.75000  0.05610
E272  E   0.55610  0.75000  0.44390
E273  E   0.55610  0.75000  0.55610
E274  E   0.55610  0.75000  0.94390
E275  E   0.55610  0.85584  0.41195
E276  E   0.55610  0.85584  0.58805
E277  E   0.55610  0.91195  0.14416
E278  E   0.55610  0.91195  0.85584
E279  E   0.55610  0.94390  0.25000
E280  E   0.55610  0.94390  0.75000
E281  E   0.58805  0.05610  0.35584
E282  E   0.58805  0.05610  0.64416
E283  E   0.58805  0.14416  0.05610
E284  E   0.58805  0.14416  0.94390
E285  E   0.58805  0.35584  0.44390
E286  E   0.58805  0.35584  0.55610
E287  E   0.58805  0.44390  0.14416
E288  E   0.58805  0.44390  0.85584
E289  E   0.58805  0.55610  0.14416
E290  E   0.58805  0.55610  0.85584
E291  E   0.58805  0.64416  0.44390
E292  E   0.58805  0.64416  0.55610
E293  E   0.58805  0.85584  0.05610
E294  E   0.58805  0.85584  0.94390
E295  E   0.58805  0.94390  0.35584
E296  E   0.58805  0.94390  0.64416
E297  E   0.64416  0.00000  0.28195
E298  E   0.64416  0.00000  0.71805
E299  E   0.64416  0.05610  0.08805
E300  E   0.64416  0.05610  0.91195
E301  E   0.64416  0.08805  0.44390
E302  E   0.64416  0.08805  0.55610
E303  E   0.64416  0.21805  0.00000
E304  E   0.64416  0.28195  0.50000
E305  E   0.64416  0.41195  0.05610
E306  E   0.64416  0.41195  0.94390
E307  E   0.64416  0.44390  0.41195
E308  E   0.64416  0.44390  0.58805
E309  E   0.64416  0.50000  0.21805
E310  E   0.64416  0.50000  0.78195
E311  E   0.64416  0.55610  0.41195
E312  E   0.64416  0.55610  0.58805
E313  E   0.64416  0.58805  0.05610
E314  E   0.64416  0.58805  0.94390
E315  E   0.64416  0.71805  0.50000
E316  E   0.64416  0.78195  0.00000
E317  E   0.64416  0.91195  0.44390
E318  E   0.64416  0.91195  0.55610
E319  E   0.64416  0.94390  0.08805
E320  E   0.64416  0.94390  0.91195
E321  E   0.67610  0.00000  0.00000
E322  E   0.67610  0.00000  0.50000
E323  E   0.67610  0.50000  0.00000
E324  E   0.67610  0.50000  0.50000
E325  E   0.71805  0.00000  0.14416
E326  E   0.71805  0.00000  0.85584
E327  E   0.71805  0.14416  0.50000
E328  E   0.71805  0.35584  0.00000
E329  E   0.71805  0.50000  0.35584
E330  E   0.71805  0.50000  0.64416
E331  E   0.71805  0.64416  0.00000
E332  E   0.71805  0.85584  0.50000
E333  E   0.75000  0.05610  0.05610
E334  E   0.75000  0.05610  0.44390
E335  E   0.75000  0.05610  0.55610
E336  E   0.75000  0.05610  0.94390
E337  E   0.75000  0.44390  0.05610
E338  E   0.75000  0.44390  0.44390
E339  E   0.75000  0.44390  0.55610
E340  E   0.75000  0.44390  0.94390
E341  E   0.75000  0.55610  0.05610
E342  E   0.75000  0.55610  0.44390
E343  E   0.75000  0.55610  0.55610
E344  E   0.75000  0.55610  0.94390
E345  E   0.75000  0.94390  0.05610
E346  E   0.75000  0.94390  0.44390
E347  E   0.75000  0.94390  0.55610
E348  E   0.75000  0.94390  0.94390
E349  E   0.78195  0.00000  0.35584
E350  E   0.78195  0.00000  0.64416
E351  E   0.78195  0.14416  0.00000
E352  E   0.78195  0.35584  0.50000
E353  E   0.78195  0.50000  0.14416
E354  E   0.78195  0.50000  0.85584
E355  E   0.78195  0.64416  0.50000
E356  E   0.78195  0.85584  0.00000
E357  E   0.82390  0.00000  0.00000
E358  E   0.82390  0.00000  0.50000
E359  E   0.82390  0.50000  0.00000
E360  E   0.82390  0.50000  0.50000
E361  E   0.85584  0.00000  0.21805
E362  E   0.85584  0.00000  0.78195
E363  E   0.85584  0.05610  0.41195
E364  E   0.85584  0.05610  0.58805
E365  E   0.85584  0.08805  0.05610
E366  E   0.85584  0.08805  0.94390
E367  E   0.85584  0.21805  0.50000
E368  E   0.85584  0.28195  0.00000
E369  E   0.85584  0.41195  0.44390
E370  E   0.85584  0.41195  0.55610
E371  E   0.85584  0.44390  0.08805
E372  E   0.85584  0.44390  0.91195
E373  E   0.85584  0.50000  0.28195
E374  E   0.85584  0.50000  0.71805
E375  E   0.85584  0.55610  0.08805
E376  E   0.85584  0.55610  0.91195
E377  E   0.85584  0.58805  0.44390
E378  E   0.85584  0.58805  0.55610
E379  E   0.85584  0.71805  0.00000
E380  E   0.85584  0.78195  0.50000
E381  E   0.85584  0.91195  0.05610
E382  E   0.85584  0.91195  0.94390
E383  E   0.85584  0.94390  0.41195
E384  E   0.85584  0.94390  0.58805
E385  E   0.91195  0.05610  0.14416
E386  E   0.91195  0.05610  0.85584
E387  E   0.91195  0.14416  0.44390
E388  E   0.91195  0.14416  0.55610
E389  E   0.91195  0.35584  0.05610
E390  E   0.91195  0.35584  0.94390
E391  E   0.91195  0.44390  0.35584
E392  E   0.91195  0.44390  0.64416
E393  E   0.91195  0.55610  0.35584
E394  E   0.91195  0.55610  0.64416
E395  E   0.91195  0.64416  0.05610
E396  E   0.91195  0.64416  0.94390
E397  E   0.91195  0.85584  0.44390
E398  E   0.91195  0.85584  0.55610
E399  E   0.91195  0.94390  0.14416
E400  E   0.91195  0.94390  0.85584
E401  E   0.94390  0.05610  0.25000
E402  E   0.94390  0.05610  0.75000
E403  E   0.94390  0.08805  0.35584
E404  E   0.94390  0.08805  0.64416
E405  E   0.94390  0.14416  0.08805
E406  E   0.94390  0.14416  0.91195
E407  E   0.94390  0.25000  0.05610
E408  E   0.94390  0.25000  0.44390
E409  E   0.94390  0.25000  0.55610
E410  E   0.94390  0.25000  0.94390
E411  E   0.94390  0.35584  0.41195
E412  E   0.94390  0.35584  0.58805
E413  E   0.94390  0.41195  0.14416
E414  E   0.94390  0.41195  0.85584
E415  E   0.94390  0.44390  0.25000
E416  E   0.94390  0.44390  0.75000
E417  E   0.94390  0.55610  0.25000
E418  E   0.94390  0.55610  0.75000
E419  E   0.94390  0.58805  0.14416
E420  E   0.94390  0.58805  0.85584
E421  E   0.94390  0.64416  0.41195
E422  E   0.94390  0.64416  0.58805
E423  E   0.94390  0.75000  0.05610
E424  E   0.94390  0.75000  0.44390
E425  E   0.94390  0.75000  0.55610
E426  E   0.94390  0.75000  0.94390
E427  E   0.94390  0.85584  0.08805
E428  E   0.94390  0.85584  0.91195
E429  E   0.94390  0.91195  0.35584
E430  E   0.94390  0.91195  0.64416
E431  E   0.94390  0.94390  0.25000
E432  E   0.94390  0.94390  0.75000
loop_
