data_naz_Fm-3c  hall_number: 524, V_con: 8
_audit_creation_date              2025-03-06
_audit_creation_method            'MOFbuilder_1.0'
_symmetry_space_group_name_H-M    'P1'
_symmetry_Int_Tables_number       1
_symmetry_cell_setting            triclinic
loop_
_symmetry_equiv_pos_as_xyz
  x,y,z
_cell_length_a                    45.7046
_cell_length_b                    45.7046
_cell_length_c                    45.7046
_cell_angle_alpha                 90.0
_cell_angle_beta                  90.0
_cell_angle_gamma                 90.0
loop_
_atom_site_label
_atom_site_type_symbol
_atom_site_fract_x
_atom_site_fract_y
_atom_site_fract_z
V1    V   0.00000  0.11408  0.32390
V2    V   0.00000  0.11408  0.67610
V3    V   0.00000  0.17610  0.11408
V4    V   0.00000  0.17610  0.88592
V5    V   0.00000  0.32390  0.38592
V6    V   0.00000  0.32390  0.61408
V7    V   0.00000  0.38592  0.17610
V8    V   0.00000  0.38592  0.82390
V9    V   0.00000  0.61408  0.17610
V10   V   0.00000  0.61408  0.82390
V11   V   0.00000  0.67610  0.38592
V12   V   0.00000  0.67610  0.61408
V13   V   0.00000  0.82390  0.11408
V14   V   0.00000  0.82390  0.88592
V15   V   0.00000  0.88592  0.32390
V16   V   0.00000  0.88592  0.67610
V17   V   0.11408  0.00000  0.17610
V18   V   0.11408  0.00000  0.82390
V19   V   0.11408  0.17610  0.50000
V20   V   0.11408  0.32390  0.00000
V21   V   0.11408  0.50000  0.32390
V22   V   0.11408  0.50000  0.67610
V23   V   0.11408  0.67610  0.00000
V24   V   0.11408  0.82390  0.50000
V25   V   0.17610  0.00000  0.38592
V26   V   0.17610  0.00000  0.61408
V27   V   0.17610  0.11408  0.00000
V28   V   0.17610  0.38592  0.50000
V29   V   0.17610  0.50000  0.11408
V30   V   0.17610  0.50000  0.88592
V31   V   0.17610  0.61408  0.50000
V32   V   0.17610  0.88592  0.00000
V33   V   0.32390  0.00000  0.11408
V34   V   0.32390  0.00000  0.88592
V35   V   0.32390  0.11408  0.50000
V36   V   0.32390  0.38592  0.00000
V37   V   0.32390  0.50000  0.38592
V38   V   0.32390  0.50000  0.61408
V39   V   0.32390  0.61408  0.00000
V40   V   0.32390  0.88592  0.50000
V41   V   0.38592  0.00000  0.32390
V42   V   0.38592  0.00000  0.67610
V43   V   0.38592  0.17610  0.00000
V44   V   0.38592  0.32390  0.50000
V45   V   0.38592  0.50000  0.17610
V46   V   0.38592  0.50000  0.82390
V47   V   0.38592  0.67610  0.50000
V48   V   0.38592  0.82390  0.00000
V49   V   0.50000  0.11408  0.17610
V50   V   0.50000  0.11408  0.82390
V51   V   0.50000  0.17610  0.38592
V52   V   0.50000  0.17610  0.61408
V53   V   0.50000  0.32390  0.11408
V54   V   0.50000  0.32390  0.88592
V55   V   0.50000  0.38592  0.32390
V56   V   0.50000  0.38592  0.67610
V57   V   0.50000  0.61408  0.32390
V58   V   0.50000  0.61408  0.67610
V59   V   0.50000  0.67610  0.11408
V60   V   0.50000  0.67610  0.88592
V61   V   0.50000  0.82390  0.38592
V62   V   0.50000  0.82390  0.61408
V63   V   0.50000  0.88592  0.17610
V64   V   0.50000  0.88592  0.82390
V65   V   0.61408  0.00000  0.32390
V66   V   0.61408  0.00000  0.67610
V67   V   0.61408  0.17610  0.00000
V68   V   0.61408  0.32390  0.50000
V69   V   0.61408  0.50000  0.17610
V70   V   0.61408  0.50000  0.82390
V71   V   0.61408  0.67610  0.50000
V72   V   0.61408  0.82390  0.00000
V73   V   0.67610  0.00000  0.11408
V74   V   0.67610  0.00000  0.88592
V75   V   0.67610  0.11408  0.50000
V76   V   0.67610  0.38592  0.00000
V77   V   0.67610  0.50000  0.38592
V78   V   0.67610  0.50000  0.61408
V79   V   0.67610  0.61408  0.00000
V80   V   0.67610  0.88592  0.50000
V81   V   0.82390  0.00000  0.38592
V82   V   0.82390  0.00000  0.61408
V83   V   0.82390  0.11408  0.00000
V84   V   0.82390  0.38592  0.50000
V85   V   0.82390  0.50000  0.11408
V86   V   0.82390  0.50000  0.88592
V87   V   0.82390  0.61408  0.50000
V88   V   0.82390  0.88592  0.00000
V89   V   0.88592  0.00000  0.17610
V90   V   0.88592  0.00000  0.82390
V91   V   0.88592  0.17610  0.50000
V92   V   0.88592  0.32390  0.00000
V93   V   0.88592  0.50000  0.32390
V94   V   0.88592  0.50000  0.67610
V95   V   0.88592  0.67610  0.00000
V96   V   0.88592  0.82390  0.50000
E1    E   0.00000  0.14509  0.21899
E2    E   0.00000  0.14509  0.78101
E3    E   0.00000  0.21899  0.35491
E4    E   0.00000  0.21899  0.64509
E5    E   0.00000  0.28101  0.14509
E6    E   0.00000  0.28101  0.85491
E7    E   0.00000  0.35491  0.28101
E8    E   0.00000  0.35491  0.71899
E9    E   0.00000  0.64509  0.28101
E10   E   0.00000  0.64509  0.71899
E11   E   0.00000  0.71899  0.14509
E12   E   0.00000  0.71899  0.85491
E13   E   0.00000  0.78101  0.35491
E14   E   0.00000  0.78101  0.64509
E15   E   0.00000  0.85491  0.21899
E16   E   0.00000  0.85491  0.78101
E17   E   0.05704  0.05704  0.25000
E18   E   0.05704  0.05704  0.75000
E19   E   0.05704  0.08805  0.14509
E20   E   0.05704  0.08805  0.85491
E21   E   0.05704  0.14509  0.41195
E22   E   0.05704  0.14509  0.58805
E23   E   0.05704  0.25000  0.05704
E24   E   0.05704  0.25000  0.44296
E25   E   0.05704  0.25000  0.55704
E26   E   0.05704  0.25000  0.94296
E27   E   0.05704  0.35491  0.08805
E28   E   0.05704  0.35491  0.91195
E29   E   0.05704  0.41195  0.35491
E30   E   0.05704  0.41195  0.64509
E31   E   0.05704  0.44296  0.25000
E32   E   0.05704  0.44296  0.75000
E33   E   0.05704  0.55704  0.25000
E34   E   0.05704  0.55704  0.75000
E35   E   0.05704  0.58805  0.35491
E36   E   0.05704  0.58805  0.64509
E37   E   0.05704  0.64509  0.08805
E38   E   0.05704  0.64509  0.91195
E39   E   0.05704  0.75000  0.05704
E40   E   0.05704  0.75000  0.44296
E41   E   0.05704  0.75000  0.55704
E42   E   0.05704  0.75000  0.94296
E43   E   0.05704  0.85491  0.41195
E44   E   0.05704  0.85491  0.58805
E45   E   0.05704  0.91195  0.14509
E46   E   0.05704  0.91195  0.85491
E47   E   0.05704  0.94296  0.25000
E48   E   0.05704  0.94296  0.75000
E49   E   0.08805  0.05704  0.35491
E50   E   0.08805  0.05704  0.64509
E51   E   0.08805  0.14509  0.05704
E52   E   0.08805  0.14509  0.94296
E53   E   0.08805  0.35491  0.44296
E54   E   0.08805  0.35491  0.55704
E55   E   0.08805  0.44296  0.14509
E56   E   0.08805  0.44296  0.85491
E57   E   0.08805  0.55704  0.14509
E58   E   0.08805  0.55704  0.85491
E59   E   0.08805  0.64509  0.44296
E60   E   0.08805  0.64509  0.55704
E61   E   0.08805  0.85491  0.05704
E62   E   0.08805  0.85491  0.94296
E63   E   0.08805  0.94296  0.35491
E64   E   0.08805  0.94296  0.64509
E65   E   0.14509  0.00000  0.28101
E66   E   0.14509  0.00000  0.71899
E67   E   0.14509  0.05704  0.08805
E68   E   0.14509  0.05704  0.91195
E69   E   0.14509  0.08805  0.44296
E70   E   0.14509  0.08805  0.55704
E71   E   0.14509  0.21899  0.00000
E72   E   0.14509  0.28101  0.50000
E73   E   0.14509  0.41195  0.05704
E74   E   0.14509  0.41195  0.94296
E75   E   0.14509  0.44296  0.41195
E76   E   0.14509  0.44296  0.58805
E77   E   0.14509  0.50000  0.21899
E78   E   0.14509  0.50000  0.78101
E79   E   0.14509  0.55704  0.41195
E80   E   0.14509  0.55704  0.58805
E81   E   0.14509  0.58805  0.05704
E82   E   0.14509  0.58805  0.94296
E83   E   0.14509  0.71899  0.50000
E84   E   0.14509  0.78101  0.00000
E85   E   0.14509  0.91195  0.44296
E86   E   0.14509  0.91195  0.55704
E87   E   0.14509  0.94296  0.08805
E88   E   0.14509  0.94296  0.91195
E89   E   0.21899  0.00000  0.14509
E90   E   0.21899  0.00000  0.85491
E91   E   0.21899  0.14509  0.50000
E92   E   0.21899  0.35491  0.00000
E93   E   0.21899  0.50000  0.35491
E94   E   0.21899  0.50000  0.64509
E95   E   0.21899  0.64509  0.00000
E96   E   0.21899  0.85491  0.50000
E97   E   0.25000  0.05704  0.05704
E98   E   0.25000  0.05704  0.44296
E99   E   0.25000  0.05704  0.55704
E100  E   0.25000  0.05704  0.94296
E101  E   0.25000  0.44296  0.05704
E102  E   0.25000  0.44296  0.44296
E103  E   0.25000  0.44296  0.55704
E104  E   0.25000  0.44296  0.94296
E105  E   0.25000  0.55704  0.05704
E106  E   0.25000  0.55704  0.44296
E107  E   0.25000  0.55704  0.55704
E108  E   0.25000  0.55704  0.94296
E109  E   0.25000  0.94296  0.05704
E110  E   0.25000  0.94296  0.44296
E111  E   0.25000  0.94296  0.55704
E112  E   0.25000  0.94296  0.94296
E113  E   0.28101  0.00000  0.35491
E114  E   0.28101  0.00000  0.64509
E115  E   0.28101  0.14509  0.00000
E116  E   0.28101  0.35491  0.50000
E117  E   0.28101  0.50000  0.14509
E118  E   0.28101  0.50000  0.85491
E119  E   0.28101  0.64509  0.50000
E120  E   0.28101  0.85491  0.00000
E121  E   0.35491  0.00000  0.21899
E122  E   0.35491  0.00000  0.78101
E123  E   0.35491  0.05704  0.41195
E124  E   0.35491  0.05704  0.58805
E125  E   0.35491  0.08805  0.05704
E126  E   0.35491  0.08805  0.94296
E127  E   0.35491  0.21899  0.50000
E128  E   0.35491  0.28101  0.00000
E129  E   0.35491  0.41195  0.44296
E130  E   0.35491  0.41195  0.55704
E131  E   0.35491  0.44296  0.08805
E132  E   0.35491  0.44296  0.91195
E133  E   0.35491  0.50000  0.28101
E134  E   0.35491  0.50000  0.71899
E135  E   0.35491  0.55704  0.08805
E136  E   0.35491  0.55704  0.91195
E137  E   0.35491  0.58805  0.44296
E138  E   0.35491  0.58805  0.55704
E139  E   0.35491  0.71899  0.00000
E140  E   0.35491  0.78101  0.50000
E141  E   0.35491  0.91195  0.05704
E142  E   0.35491  0.91195  0.94296
E143  E   0.35491  0.94296  0.41195
E144  E   0.35491  0.94296  0.58805
E145  E   0.41195  0.05704  0.14509
E146  E   0.41195  0.05704  0.85491
E147  E   0.41195  0.14509  0.44296
E148  E   0.41195  0.14509  0.55704
E149  E   0.41195  0.35491  0.05704
E150  E   0.41195  0.35491  0.94296
E151  E   0.41195  0.44296  0.35491
E152  E   0.41195  0.44296  0.64509
E153  E   0.41195  0.55704  0.35491
E154  E   0.41195  0.55704  0.64509
E155  E   0.41195  0.64509  0.05704
E156  E   0.41195  0.64509  0.94296
E157  E   0.41195  0.85491  0.44296
E158  E   0.41195  0.85491  0.55704
E159  E   0.41195  0.94296  0.14509
E160  E   0.41195  0.94296  0.85491
E161  E   0.44296  0.05704  0.25000
E162  E   0.44296  0.05704  0.75000
E163  E   0.44296  0.08805  0.35491
E164  E   0.44296  0.08805  0.64509
E165  E   0.44296  0.14509  0.08805
E166  E   0.44296  0.14509  0.91195
E167  E   0.44296  0.25000  0.05704
E168  E   0.44296  0.25000  0.44296
E169  E   0.44296  0.25000  0.55704
E170  E   0.44296  0.25000  0.94296
E171  E   0.44296  0.35491  0.41195
E172  E   0.44296  0.35491  0.58805
E173  E   0.44296  0.41195  0.14509
E174  E   0.44296  0.41195  0.85491
E175  E   0.44296  0.44296  0.25000
E176  E   0.44296  0.44296  0.75000
E177  E   0.44296  0.55704  0.25000
E178  E   0.44296  0.55704  0.75000
E179  E   0.44296  0.58805  0.14509
E180  E   0.44296  0.58805  0.85491
E181  E   0.44296  0.64509  0.41195
E182  E   0.44296  0.64509  0.58805
E183  E   0.44296  0.75000  0.05704
E184  E   0.44296  0.75000  0.44296
E185  E   0.44296  0.75000  0.55704
E186  E   0.44296  0.75000  0.94296
E187  E   0.44296  0.85491  0.08805
E188  E   0.44296  0.85491  0.91195
E189  E   0.44296  0.91195  0.35491
E190  E   0.44296  0.91195  0.64509
E191  E   0.44296  0.94296  0.25000
E192  E   0.44296  0.94296  0.75000
E193  E   0.50000  0.14509  0.28101
E194  E   0.50000  0.14509  0.71899
E195  E   0.50000  0.21899  0.14509
E196  E   0.50000  0.21899  0.85491
E197  E   0.50000  0.28101  0.35491
E198  E   0.50000  0.28101  0.64509
E199  E   0.50000  0.35491  0.21899
E200  E   0.50000  0.35491  0.78101
E201  E   0.50000  0.64509  0.21899
E202  E   0.50000  0.64509  0.78101
E203  E   0.50000  0.71899  0.35491
E204  E   0.50000  0.71899  0.64509
E205  E   0.50000  0.78101  0.14509
E206  E   0.50000  0.78101  0.85491
E207  E   0.50000  0.85491  0.28101
E208  E   0.50000  0.85491  0.71899
E209  E   0.55704  0.05704  0.25000
E210  E   0.55704  0.05704  0.75000
E211  E   0.55704  0.08805  0.35491
E212  E   0.55704  0.08805  0.64509
E213  E   0.55704  0.14509  0.08805
E214  E   0.55704  0.14509  0.91195
E215  E   0.55704  0.25000  0.05704
E216  E   0.55704  0.25000  0.44296
E217  E   0.55704  0.25000  0.55704
E218  E   0.55704  0.25000  0.94296
E219  E   0.55704  0.35491  0.41195
E220  E   0.55704  0.35491  0.58805
E221  E   0.55704  0.41195  0.14509
E222  E   0.55704  0.41195  0.85491
E223  E   0.55704  0.44296  0.25000
E224  E   0.55704  0.44296  0.75000
E225  E   0.55704  0.55704  0.25000
E226  E   0.55704  0.55704  0.75000
E227  E   0.55704  0.58805  0.14509
E228  E   0.55704  0.58805  0.85491
E229  E   0.55704  0.64509  0.41195
E230  E   0.55704  0.64509  0.58805
E231  E   0.55704  0.75000  0.05704
E232  E   0.55704  0.75000  0.44296
E233  E   0.55704  0.75000  0.55704
E234  E   0.55704  0.75000  0.94296
E235  E   0.55704  0.85491  0.08805
E236  E   0.55704  0.85491  0.91195
E237  E   0.55704  0.91195  0.35491
E238  E   0.55704  0.91195  0.64509
E239  E   0.55704  0.94296  0.25000
E240  E   0.55704  0.94296  0.75000
E241  E   0.58805  0.05704  0.14509
E242  E   0.58805  0.05704  0.85491
E243  E   0.58805  0.14509  0.44296
E244  E   0.58805  0.14509  0.55704
E245  E   0.58805  0.35491  0.05704
E246  E   0.58805  0.35491  0.94296
E247  E   0.58805  0.44296  0.35491
E248  E   0.58805  0.44296  0.64509
E249  E   0.58805  0.55704  0.35491
E250  E   0.58805  0.55704  0.64509
E251  E   0.58805  0.64509  0.05704
E252  E   0.58805  0.64509  0.94296
E253  E   0.58805  0.85491  0.44296
E254  E   0.58805  0.85491  0.55704
E255  E   0.58805  0.94296  0.14509
E256  E   0.58805  0.94296  0.85491
E257  E   0.64509  0.00000  0.21899
E258  E   0.64509  0.00000  0.78101
E259  E   0.64509  0.05704  0.41195
E260  E   0.64509  0.05704  0.58805
E261  E   0.64509  0.08805  0.05704
E262  E   0.64509  0.08805  0.94296
E263  E   0.64509  0.21899  0.50000
E264  E   0.64509  0.28101  0.00000
E265  E   0.64509  0.41195  0.44296
E266  E   0.64509  0.41195  0.55704
E267  E   0.64509  0.44296  0.08805
E268  E   0.64509  0.44296  0.91195
E269  E   0.64509  0.50000  0.28101
E270  E   0.64509  0.50000  0.71899
E271  E   0.64509  0.55704  0.08805
E272  E   0.64509  0.55704  0.91195
E273  E   0.64509  0.58805  0.44296
E274  E   0.64509  0.58805  0.55704
E275  E   0.64509  0.71899  0.00000
E276  E   0.64509  0.78101  0.50000
E277  E   0.64509  0.91195  0.05704
E278  E   0.64509  0.91195  0.94296
E279  E   0.64509  0.94296  0.41195
E280  E   0.64509  0.94296  0.58805
E281  E   0.71899  0.00000  0.35491
E282  E   0.71899  0.00000  0.64509
E283  E   0.71899  0.14509  0.00000
E284  E   0.71899  0.35491  0.50000
E285  E   0.71899  0.50000  0.14509
E286  E   0.71899  0.50000  0.85491
E287  E   0.71899  0.64509  0.50000
E288  E   0.71899  0.85491  0.00000
E289  E   0.75000  0.05704  0.05704
E290  E   0.75000  0.05704  0.44296
E291  E   0.75000  0.05704  0.55704
E292  E   0.75000  0.05704  0.94296
E293  E   0.75000  0.44296  0.05704
E294  E   0.75000  0.44296  0.44296
E295  E   0.75000  0.44296  0.55704
E296  E   0.75000  0.44296  0.94296
E297  E   0.75000  0.55704  0.05704
E298  E   0.75000  0.55704  0.44296
E299  E   0.75000  0.55704  0.55704
E300  E   0.75000  0.55704  0.94296
E301  E   0.75000  0.94296  0.05704
E302  E   0.75000  0.94296  0.44296
E303  E   0.75000  0.94296  0.55704
E304  E   0.75000  0.94296  0.94296
E305  E   0.78101  0.00000  0.14509
E306  E   0.78101  0.00000  0.85491
E307  E   0.78101  0.14509  0.50000
E308  E   0.78101  0.35491  0.00000
E309  E   0.78101  0.50000  0.35491
E310  E   0.78101  0.50000  0.64509
E311  E   0.78101  0.64509  0.00000
E312  E   0.78101  0.85491  0.50000
E313  E   0.85491  0.00000  0.28101
E314  E   0.85491  0.00000  0.71899
E315  E   0.85491  0.05704  0.08805
E316  E   0.85491  0.05704  0.91195
E317  E   0.85491  0.08805  0.44296
E318  E   0.85491  0.08805  0.55704
E319  E   0.85491  0.21899  0.00000
E320  E   0.85491  0.28101  0.50000
E321  E   0.85491  0.41195  0.05704
E322  E   0.85491  0.41195  0.94296
E323  E   0.85491  0.44296  0.41195
E324  E   0.85491  0.44296  0.58805
E325  E   0.85491  0.50000  0.21899
E326  E   0.85491  0.50000  0.78101
E327  E   0.85491  0.55704  0.41195
E328  E   0.85491  0.55704  0.58805
E329  E   0.85491  0.58805  0.05704
E330  E   0.85491  0.58805  0.94296
E331  E   0.85491  0.71899  0.50000
E332  E   0.85491  0.78101  0.00000
E333  E   0.85491  0.91195  0.44296
E334  E   0.85491  0.91195  0.55704
E335  E   0.85491  0.94296  0.08805
E336  E   0.85491  0.94296  0.91195
E337  E   0.91195  0.05704  0.35491
E338  E   0.91195  0.05704  0.64509
E339  E   0.91195  0.14509  0.05704
E340  E   0.91195  0.14509  0.94296
E341  E   0.91195  0.35491  0.44296
E342  E   0.91195  0.35491  0.55704
E343  E   0.91195  0.44296  0.14509
E344  E   0.91195  0.44296  0.85491
E345  E   0.91195  0.55704  0.14509
E346  E   0.91195  0.55704  0.85491
E347  E   0.91195  0.64509  0.44296
E348  E   0.91195  0.64509  0.55704
E349  E   0.91195  0.85491  0.05704
E350  E   0.91195  0.85491  0.94296
E351  E   0.91195  0.94296  0.35491
E352  E   0.91195  0.94296  0.64509
E353  E   0.94296  0.05704  0.25000
E354  E   0.94296  0.05704  0.75000
E355  E   0.94296  0.08805  0.14509
E356  E   0.94296  0.08805  0.85491
E357  E   0.94296  0.14509  0.41195
E358  E   0.94296  0.14509  0.58805
E359  E   0.94296  0.25000  0.05704
E360  E   0.94296  0.25000  0.44296
E361  E   0.94296  0.25000  0.55704
E362  E   0.94296  0.25000  0.94296
E363  E   0.94296  0.35491  0.08805
E364  E   0.94296  0.35491  0.91195
E365  E   0.94296  0.41195  0.35491
E366  E   0.94296  0.41195  0.64509
E367  E   0.94296  0.44296  0.25000
E368  E   0.94296  0.44296  0.75000
E369  E   0.94296  0.55704  0.25000
E370  E   0.94296  0.55704  0.75000
E371  E   0.94296  0.58805  0.35491
E372  E   0.94296  0.58805  0.64509
E373  E   0.94296  0.64509  0.08805
E374  E   0.94296  0.64509  0.91195
E375  E   0.94296  0.75000  0.05704
E376  E   0.94296  0.75000  0.44296
E377  E   0.94296  0.75000  0.55704
E378  E   0.94296  0.75000  0.94296
E379  E   0.94296  0.85491  0.41195
E380  E   0.94296  0.85491  0.58805
E381  E   0.94296  0.91195  0.14509
E382  E   0.94296  0.91195  0.85491
E383  E   0.94296  0.94296  0.25000
E384  E   0.94296  0.94296  0.75000
loop_
