data_ncb_I-43m  hall_number: 513, V_con: 9
_audit_creation_date              2025-03-06
_audit_creation_method            'MOFbuilder_1.0'
_symmetry_space_group_name_H-M    'P1'
_symmetry_Int_Tables_number       1
_symmetry_cell_setting            triclinic
loop_
_symmetry_equiv_pos_as_xyz
  x,y,z
_cell_length_a                    18.8562
_cell_length_b                    18.8562
_cell_length_c                    18.8562
_cell_angle_alpha                 90.0
_cell_angle_beta                  90.0
_cell_angle_gamma                 90.0
loop_
_atom_site_label
_atom_site_type_symbol
_atom_site_fract_x
_atom_site_fract_y
_atom_site_fract_z
V1    V   0.18750  0.18750  0.18750
V2    V   0.18750  0.81250  0.81250
V3    V   0.31250  0.31250  0.68750
V4    V   0.31250  0.68750  0.31250
V5    V   0.68750  0.31250  0.31250
V6    V   0.68750  0.68750  0.68750
V7    V   0.81250  0.18750  0.81250
V8    V   0.81250  0.81250  0.18750
E1    E   0.00000  0.00000  0.18750
E2    E   0.00000  0.00000  0.81250
E3    E   0.00000  0.18750  0.00000
E4    E   0.00000  0.81250  0.00000
E5    E   0.06250  0.25000  0.75000
E6    E   0.06250  0.75000  0.25000
E7    E   0.18750  0.00000  0.00000
E8    E   0.25000  0.06250  0.75000
E9    E   0.25000  0.25000  0.43750
E10   E   0.25000  0.25000  0.93750
E11   E   0.25000  0.43750  0.25000
E12   E   0.25000  0.56250  0.75000
E13   E   0.25000  0.75000  0.06250
E14   E   0.25000  0.75000  0.56250
E15   E   0.25000  0.93750  0.25000
E16   E   0.31250  0.50000  0.50000
E17   E   0.43750  0.25000  0.25000
E18   E   0.43750  0.75000  0.75000
E19   E   0.50000  0.31250  0.50000
E20   E   0.50000  0.50000  0.31250
E21   E   0.50000  0.50000  0.68750
E22   E   0.50000  0.68750  0.50000
E23   E   0.56250  0.25000  0.75000
E24   E   0.56250  0.75000  0.25000
E25   E   0.68750  0.50000  0.50000
E26   E   0.75000  0.06250  0.25000
E27   E   0.75000  0.25000  0.06250
E28   E   0.75000  0.25000  0.56250
E29   E   0.75000  0.43750  0.75000
E30   E   0.75000  0.56250  0.25000
E31   E   0.75000  0.75000  0.43750
E32   E   0.75000  0.75000  0.93750
E33   E   0.75000  0.93750  0.75000
E34   E   0.81250  0.00000  0.00000
E35   E   0.93750  0.25000  0.25000
E36   E   0.93750  0.75000  0.75000
loop_
