data_nci_Fmmm  hall_number: 334, V_con: 9
_audit_creation_date              2025-03-06
_audit_creation_method            'MOFbuilder_1.0'
_symmetry_space_group_name_H-M    'P1'
_symmetry_Int_Tables_number       1
_symmetry_cell_setting            triclinic
loop_
_symmetry_equiv_pos_as_xyz
  x,y,z
_cell_length_a                    10.0001
_cell_length_b                    37.3205
_cell_length_c                    17.3204
_cell_angle_alpha                 90.0
_cell_angle_beta                  90.0
_cell_angle_gamma                 90.0
loop_
_atom_site_label
_atom_site_type_symbol
_atom_site_fract_x
_atom_site_fract_y
_atom_site_fract_z
V1    V   0.00000  0.13397  0.00000
V2    V   0.00000  0.36603  0.50000
V3    V   0.00000  0.63397  0.50000
V4    V   0.00000  0.86603  0.00000
V5    V   0.50000  0.13397  0.50000
V6    V   0.50000  0.36603  0.00000
V7    V   0.50000  0.63397  0.00000
V8    V   0.50000  0.86603  0.50000
E1    E   0.00000  0.00000  0.00000
E2    E   0.00000  0.13397  0.50000
E3    E   0.00000  0.36603  0.00000
E4    E   0.00000  0.50000  0.50000
E5    E   0.00000  0.63397  0.00000
E6    E   0.00000  0.86603  0.50000
E7    E   0.25000  0.13397  0.25000
E8    E   0.25000  0.13397  0.75000
E9    E   0.25000  0.25000  0.00000
E10   E   0.25000  0.25000  0.50000
E11   E   0.25000  0.36603  0.25000
E12   E   0.25000  0.36603  0.75000
E13   E   0.25000  0.63397  0.25000
E14   E   0.25000  0.63397  0.75000
E15   E   0.25000  0.75000  0.00000
E16   E   0.25000  0.75000  0.50000
E17   E   0.25000  0.86603  0.25000
E18   E   0.25000  0.86603  0.75000
E19   E   0.50000  0.00000  0.50000
E20   E   0.50000  0.13397  0.00000
E21   E   0.50000  0.36603  0.50000
E22   E   0.50000  0.50000  0.00000
E23   E   0.50000  0.63397  0.50000
E24   E   0.50000  0.86603  0.00000
E25   E   0.75000  0.13397  0.25000
E26   E   0.75000  0.13397  0.75000
E27   E   0.75000  0.25000  0.00000
E28   E   0.75000  0.25000  0.50000
E29   E   0.75000  0.36603  0.25000
E30   E   0.75000  0.36603  0.75000
E31   E   0.75000  0.63397  0.25000
E32   E   0.75000  0.63397  0.75000
E33   E   0.75000  0.75000  0.00000
E34   E   0.75000  0.75000  0.50000
E35   E   0.75000  0.86603  0.25000
E36   E   0.75000  0.86603  0.75000
loop_
