data_ncj_C12/m1  hall_number: 71, V_con: 9
_audit_creation_date              2025-03-06
_audit_creation_method            'MOFbuilder_1.0'
_symmetry_space_group_name_H-M    'P1'
_symmetry_Int_Tables_number       1
_symmetry_cell_setting            triclinic
loop_
_symmetry_equiv_pos_as_xyz
  x,y,z
_cell_length_a                    16.0924
_cell_length_b                    11.875800000000002
_cell_length_c                    15.9715
_cell_angle_alpha                 90.0
_cell_angle_beta                  96.1319
_cell_angle_gamma                 90.0
loop_
_atom_site_label
_atom_site_type_symbol
_atom_site_fract_x
_atom_site_fract_y
_atom_site_fract_z
V1    V   0.21922  0.50000  0.25331
V2    V   0.21922  0.50000  0.74669
V3    V   0.28078  0.00000  0.24669
V4    V   0.28078  0.00000  0.75331
V5    V   0.71922  0.00000  0.24669
V6    V   0.71922  0.00000  0.75331
V7    V   0.78078  0.50000  0.25331
V8    V   0.78078  0.50000  0.74669
E1    E   0.00000  0.50000  0.50000
E2    E   0.03078  0.25000  0.74669
E3    E   0.03078  0.75000  0.25331
E4    E   0.25000  0.25000  0.00000
E5    E   0.25000  0.25000  0.50000
E6    E   0.25000  0.75000  0.00000
E7    E   0.25000  0.75000  0.50000
E8    E   0.46922  0.25000  0.75331
E9    E   0.46922  0.75000  0.24669
E10   E   0.50000  0.00000  0.00000
E11   E   0.53078  0.25000  0.75331
E12   E   0.53078  0.75000  0.24669
E13   E   0.75000  0.25000  0.00000
E14   E   0.75000  0.25000  0.50000
E15   E   0.75000  0.75000  0.00000
E16   E   0.75000  0.75000  0.50000
E17   E   0.96922  0.25000  0.74669
E18   E   0.96922  0.75000  0.25331
loop_
