data_neb-e_Fddd:2  hall_number: 336, V_con: 6, EC_con: 6
_audit_creation_date              2025-03-06
_audit_creation_method            'MOFbuilder_1.0'
_symmetry_space_group_name_H-M    'P1'
_symmetry_Int_Tables_number       1
_symmetry_cell_setting            triclinic
loop_
_symmetry_equiv_pos_as_xyz
  x,y,z
_cell_length_a                    17.8886
_cell_length_b                    56.56869999999999
_cell_length_c                    35.7768
_cell_angle_alpha                 90.0
_cell_angle_beta                  90.0
_cell_angle_gamma                 90.0
loop_
_atom_site_label
_atom_site_type_symbol
_atom_site_fract_x
_atom_site_fract_y
_atom_site_fract_z
V1    V   0.00000  0.00000  0.50000
V2    V   0.00000  0.25000  0.75000
V3    V   0.00000  0.50000  0.00000
V4    V   0.00000  0.75000  0.25000
V5    V   0.25000  0.00000  0.75000
V6    V   0.25000  0.25000  0.50000
V7    V   0.25000  0.50000  0.25000
V8    V   0.25000  0.75000  0.00000
V9    V   0.50000  0.00000  0.00000
V10   V   0.50000  0.25000  0.25000
V11   V   0.50000  0.50000  0.50000
V12   V   0.50000  0.75000  0.75000
V13   V   0.75000  0.00000  0.25000
V14   V   0.75000  0.25000  0.00000
V15   V   0.75000  0.50000  0.75000
V16   V   0.75000  0.75000  0.50000
EC1    EC   0.12500  0.12500  0.31250
EC2    EC   0.12500  0.12500  0.93750
EC3    EC   0.12500  0.62500  0.43750
EC4    EC   0.12500  0.62500  0.81250
EC5    EC   0.37500  0.37500  0.06250
EC6    EC   0.37500  0.37500  0.68750
EC7    EC   0.37500  0.87500  0.18750
EC8    EC   0.37500  0.87500  0.56250
EC9    EC   0.62500  0.12500  0.43750
EC10   EC   0.62500  0.12500  0.81250
EC11   EC   0.62500  0.62500  0.31250
EC12   EC   0.62500  0.62500  0.93750
EC13   EC   0.87500  0.37500  0.18750
EC14   EC   0.87500  0.37500  0.56250
EC15   EC   0.87500  0.87500  0.06250
EC16   EC   0.87500  0.87500  0.68750
E1    E   0.06250  0.06250  0.40625
E2    E   0.06250  0.18750  0.84375
E3    E   0.06250  0.31250  0.53125
E4    E   0.06250  0.43750  0.21875
E5    E   0.06250  0.56250  0.90625
E6    E   0.06250  0.68750  0.34375
E7    E   0.06250  0.81250  0.03125
E8    E   0.06250  0.93750  0.71875
E9    E   0.12500  0.00000  0.62500
E10   E   0.12500  0.25000  0.62500
E11   E   0.12500  0.37500  0.12500
E12   E   0.12500  0.37500  0.62500
E13   E   0.12500  0.50000  0.12500
E14   E   0.12500  0.75000  0.12500
E15   E   0.12500  0.87500  0.12500
E16   E   0.12500  0.87500  0.62500
E17   E   0.18750  0.06250  0.84375
E18   E   0.18750  0.18750  0.40625
E19   E   0.18750  0.31250  0.71875
E20   E   0.18750  0.43750  0.03125
E21   E   0.18750  0.56250  0.34375
E22   E   0.18750  0.68750  0.90625
E23   E   0.18750  0.81250  0.21875
E24   E   0.18750  0.93750  0.53125
E25   E   0.31250  0.06250  0.96875
E26   E   0.31250  0.18750  0.28125
E27   E   0.31250  0.31250  0.59375
E28   E   0.31250  0.43750  0.15625
E29   E   0.31250  0.56250  0.46875
E30   E   0.31250  0.68750  0.78125
E31   E   0.31250  0.81250  0.09375
E32   E   0.31250  0.93750  0.65625
E33   E   0.37500  0.00000  0.87500
E34   E   0.37500  0.12500  0.37500
E35   E   0.37500  0.12500  0.87500
E36   E   0.37500  0.25000  0.37500
E37   E   0.37500  0.50000  0.37500
E38   E   0.37500  0.62500  0.37500
E39   E   0.37500  0.62500  0.87500
E40   E   0.37500  0.75000  0.87500
E41   E   0.43750  0.06250  0.78125
E42   E   0.43750  0.18750  0.46875
E43   E   0.43750  0.31250  0.15625
E44   E   0.43750  0.43750  0.59375
E45   E   0.43750  0.56250  0.28125
E46   E   0.43750  0.68750  0.96875
E47   E   0.43750  0.81250  0.65625
E48   E   0.43750  0.93750  0.09375
E49   E   0.56250  0.06250  0.90625
E50   E   0.56250  0.18750  0.34375
E51   E   0.56250  0.31250  0.03125
E52   E   0.56250  0.43750  0.71875
E53   E   0.56250  0.56250  0.40625
E54   E   0.56250  0.68750  0.84375
E55   E   0.56250  0.81250  0.53125
E56   E   0.56250  0.93750  0.21875
E57   E   0.62500  0.00000  0.12500
E58   E   0.62500  0.25000  0.12500
E59   E   0.62500  0.37500  0.12500
E60   E   0.62500  0.37500  0.62500
E61   E   0.62500  0.50000  0.62500
E62   E   0.62500  0.75000  0.62500
E63   E   0.62500  0.87500  0.12500
E64   E   0.62500  0.87500  0.62500
E65   E   0.68750  0.06250  0.34375
E66   E   0.68750  0.18750  0.90625
E67   E   0.68750  0.31250  0.21875
E68   E   0.68750  0.43750  0.53125
E69   E   0.68750  0.56250  0.84375
E70   E   0.68750  0.68750  0.40625
E71   E   0.68750  0.81250  0.71875
E72   E   0.68750  0.93750  0.03125
E73   E   0.81250  0.06250  0.46875
E74   E   0.81250  0.18750  0.78125
E75   E   0.81250  0.31250  0.09375
E76   E   0.81250  0.43750  0.65625
E77   E   0.81250  0.56250  0.96875
E78   E   0.81250  0.68750  0.28125
E79   E   0.81250  0.81250  0.59375
E80   E   0.81250  0.93750  0.15625
E81   E   0.87500  0.00000  0.37500
E82   E   0.87500  0.12500  0.37500
E83   E   0.87500  0.12500  0.87500
E84   E   0.87500  0.25000  0.87500
E85   E   0.87500  0.50000  0.87500
E86   E   0.87500  0.62500  0.37500
E87   E   0.87500  0.62500  0.87500
E88   E   0.87500  0.75000  0.37500
E89   E   0.93750  0.06250  0.28125
E90   E   0.93750  0.18750  0.96875
E91   E   0.93750  0.31250  0.65625
E92   E   0.93750  0.43750  0.09375
E93   E   0.93750  0.56250  0.78125
E94   E   0.93750  0.68750  0.46875
E95   E   0.93750  0.81250  0.15625
E96   E   0.93750  0.93750  0.59375
loop_
