data_nha_Im-3m  hall_number: 529, V_con: 6, EC_con: 3
_audit_creation_date              2025-03-06
_audit_creation_method            'MOFbuilder_1.0'
_symmetry_space_group_name_H-M    'P1'
_symmetry_Int_Tables_number       1
_symmetry_cell_setting            triclinic
loop_
_symmetry_equiv_pos_as_xyz
  x,y,z
_cell_length_a                    36.6593
_cell_length_b                    36.6593
_cell_length_c                    36.6593
_cell_angle_alpha                 90.0
_cell_angle_beta                  90.0
_cell_angle_gamma                 90.0
loop_
_atom_site_label
_atom_site_type_symbol
_atom_site_fract_x
_atom_site_fract_y
_atom_site_fract_z
V1    V   0.00000  0.30339  0.30339
V2    V   0.00000  0.30339  0.69661
V3    V   0.00000  0.69661  0.30339
V4    V   0.00000  0.69661  0.69661
V5    V   0.19661  0.19661  0.50000
V6    V   0.19661  0.50000  0.19661
V7    V   0.19661  0.50000  0.80339
V8    V   0.19661  0.80339  0.50000
V9    V   0.30339  0.00000  0.30339
V10   V   0.30339  0.00000  0.69661
V11   V   0.30339  0.30339  0.00000
V12   V   0.30339  0.69661  0.00000
V13   V   0.50000  0.19661  0.19661
V14   V   0.50000  0.19661  0.80339
V15   V   0.50000  0.80339  0.19661
V16   V   0.50000  0.80339  0.80339
V17   V   0.69661  0.00000  0.30339
V18   V   0.69661  0.00000  0.69661
V19   V   0.69661  0.30339  0.00000
V20   V   0.69661  0.69661  0.00000
V21   V   0.80339  0.19661  0.50000
V22   V   0.80339  0.50000  0.19661
V23   V   0.80339  0.50000  0.80339
V24   V   0.80339  0.80339  0.50000
EC1    EC   0.20226  0.20226  0.20226
EC2    EC   0.20226  0.20226  0.79774
EC3    EC   0.20226  0.79774  0.20226
EC4    EC   0.20226  0.79774  0.79774
EC5    EC   0.29774  0.29774  0.29774
EC6    EC   0.29774  0.29774  0.70226
EC7    EC   0.29774  0.70226  0.29774
EC8    EC   0.29774  0.70226  0.70226
EC9    EC   0.70226  0.29774  0.29774
EC10   EC   0.70226  0.29774  0.70226
EC11   EC   0.70226  0.70226  0.29774
EC12   EC   0.70226  0.70226  0.70226
EC13   EC   0.79774  0.20226  0.20226
EC14   EC   0.79774  0.20226  0.79774
EC15   EC   0.79774  0.79774  0.20226
EC16   EC   0.79774  0.79774  0.79774
E1    E   0.09830  0.25000  0.40170
E2    E   0.09830  0.25000  0.59830
E3    E   0.09830  0.40170  0.25000
E4    E   0.09830  0.40170  0.75000
E5    E   0.09830  0.59830  0.25000
E6    E   0.09830  0.59830  0.75000
E7    E   0.09830  0.75000  0.40170
E8    E   0.09830  0.75000  0.59830
E9    E   0.10113  0.25283  0.25283
E10   E   0.10113  0.25283  0.74717
E11   E   0.10113  0.74717  0.25283
E12   E   0.10113  0.74717  0.74717
E13   E   0.24717  0.24717  0.39887
E14   E   0.24717  0.24717  0.60113
E15   E   0.24717  0.39887  0.24717
E16   E   0.24717  0.39887  0.75283
E17   E   0.24717  0.60113  0.24717
E18   E   0.24717  0.60113  0.75283
E19   E   0.24717  0.75283  0.39887
E20   E   0.24717  0.75283  0.60113
E21   E   0.25000  0.09830  0.40170
E22   E   0.25000  0.09830  0.59830
E23   E   0.25000  0.40170  0.09830
E24   E   0.25000  0.40170  0.90170
E25   E   0.25000  0.59830  0.09830
E26   E   0.25000  0.59830  0.90170
E27   E   0.25000  0.90170  0.40170
E28   E   0.25000  0.90170  0.59830
E29   E   0.25283  0.10113  0.25283
E30   E   0.25283  0.10113  0.74717
E31   E   0.25283  0.25283  0.10113
E32   E   0.25283  0.25283  0.89887
E33   E   0.25283  0.74717  0.10113
E34   E   0.25283  0.74717  0.89887
E35   E   0.25283  0.89887  0.25283
E36   E   0.25283  0.89887  0.74717
E37   E   0.39887  0.24717  0.24717
E38   E   0.39887  0.24717  0.75283
E39   E   0.39887  0.75283  0.24717
E40   E   0.39887  0.75283  0.75283
E41   E   0.40170  0.09830  0.25000
E42   E   0.40170  0.09830  0.75000
E43   E   0.40170  0.25000  0.09830
E44   E   0.40170  0.25000  0.90170
E45   E   0.40170  0.75000  0.09830
E46   E   0.40170  0.75000  0.90170
E47   E   0.40170  0.90170  0.25000
E48   E   0.40170  0.90170  0.75000
E49   E   0.59830  0.09830  0.25000
E50   E   0.59830  0.09830  0.75000
E51   E   0.59830  0.25000  0.09830
E52   E   0.59830  0.25000  0.90170
E53   E   0.59830  0.75000  0.09830
E54   E   0.59830  0.75000  0.90170
E55   E   0.59830  0.90170  0.25000
E56   E   0.59830  0.90170  0.75000
E57   E   0.60113  0.24717  0.24717
E58   E   0.60113  0.24717  0.75283
E59   E   0.60113  0.75283  0.24717
E60   E   0.60113  0.75283  0.75283
E61   E   0.74717  0.10113  0.25283
E62   E   0.74717  0.10113  0.74717
E63   E   0.74717  0.25283  0.10113
E64   E   0.74717  0.25283  0.89887
E65   E   0.74717  0.74717  0.10113
E66   E   0.74717  0.74717  0.89887
E67   E   0.74717  0.89887  0.25283
E68   E   0.74717  0.89887  0.74717
E69   E   0.75000  0.09830  0.40170
E70   E   0.75000  0.09830  0.59830
E71   E   0.75000  0.40170  0.09830
E72   E   0.75000  0.40170  0.90170
E73   E   0.75000  0.59830  0.09830
E74   E   0.75000  0.59830  0.90170
E75   E   0.75000  0.90170  0.40170
E76   E   0.75000  0.90170  0.59830
E77   E   0.75283  0.24717  0.39887
E78   E   0.75283  0.24717  0.60113
E79   E   0.75283  0.39887  0.24717
E80   E   0.75283  0.39887  0.75283
E81   E   0.75283  0.60113  0.24717
E82   E   0.75283  0.60113  0.75283
E83   E   0.75283  0.75283  0.39887
E84   E   0.75283  0.75283  0.60113
E85   E   0.89887  0.25283  0.25283
E86   E   0.89887  0.25283  0.74717
E87   E   0.89887  0.74717  0.25283
E88   E   0.89887  0.74717  0.74717
E89   E   0.90170  0.25000  0.40170
E90   E   0.90170  0.25000  0.59830
E91   E   0.90170  0.40170  0.25000
E92   E   0.90170  0.40170  0.75000
E93   E   0.90170  0.59830  0.25000
E94   E   0.90170  0.59830  0.75000
E95   E   0.90170  0.75000  0.40170
E96   E   0.90170  0.75000  0.59830
loop_
