data_nip_I12/a1  hall_number: 107, V_con: 4, EC_con: 4
_audit_creation_date              2025-03-06
_audit_creation_method            'MOFbuilder_1.0'
_symmetry_space_group_name_H-M    'P1'
_symmetry_Int_Tables_number       1
_symmetry_cell_setting            triclinic
loop_
_symmetry_equiv_pos_as_xyz
  x,y,z
_cell_length_a                    34.4565
_cell_length_b                    23.4627
_cell_length_c                    24.075899999999997
_cell_angle_alpha                 90.0
_cell_angle_beta                  110.4359
_cell_angle_gamma                 90.0
loop_
_atom_site_label
_atom_site_type_symbol
_atom_site_fract_x
_atom_site_fract_y
_atom_site_fract_z
V1    V   0.09518  0.61376  0.57305
V2    V   0.09518  0.88624  0.42695
V3    V   0.40482  0.61376  0.07305
V4    V   0.40482  0.88624  0.92695
V5    V   0.59518  0.11376  0.07305
V6    V   0.59518  0.38624  0.92695
V7    V   0.90482  0.11376  0.57305
V8    V   0.90482  0.38624  0.42695
EC1    EC   0.00000  0.00000  0.00000
EC2    EC   0.00000  0.50000  0.00000
EC3    EC   0.50000  0.00000  0.50000
EC4    EC   0.50000  0.50000  0.50000
E1    E   0.00000  0.00000  0.50000
E2    E   0.00000  0.50000  0.50000
E3    E   0.04759  0.55688  0.78653
E4    E   0.04759  0.69312  0.03653
E5    E   0.04759  0.80688  0.96347
E6    E   0.04759  0.94312  0.21347
E7    E   0.25000  0.61376  0.00000
E8    E   0.25000  0.61376  0.50000
E9    E   0.25000  0.88624  0.00000
E10   E   0.25000  0.88624  0.50000
E11   E   0.45241  0.55688  0.28653
E12   E   0.45241  0.69312  0.53653
E13   E   0.45241  0.80688  0.46347
E14   E   0.45241  0.94312  0.71347
E15   E   0.50000  0.00000  0.00000
E16   E   0.50000  0.50000  0.00000
E17   E   0.54759  0.05688  0.28653
E18   E   0.54759  0.19312  0.53653
E19   E   0.54759  0.30688  0.46347
E20   E   0.54759  0.44312  0.71347
E21   E   0.75000  0.11376  0.00000
E22   E   0.75000  0.11376  0.50000
E23   E   0.75000  0.38624  0.00000
E24   E   0.75000  0.38624  0.50000
E25   E   0.95241  0.05688  0.78653
E26   E   0.95241  0.19312  0.03653
E27   E   0.95241  0.30688  0.96347
E28   E   0.95241  0.44312  0.21347
loop_
