data_nob_Pmna  hall_number: 251, V_con: 3, EC_con: 3
_audit_creation_date              2025-03-06
_audit_creation_method            'MOFbuilder_1.0'
_symmetry_space_group_name_H-M    'P1'
_symmetry_Int_Tables_number       1
_symmetry_cell_setting            triclinic
loop_
_symmetry_equiv_pos_as_xyz
  x,y,z
_cell_length_a                    44.6884
_cell_length_b                    25.3946
_cell_length_c                    23.880300000000002
_cell_angle_alpha                 90.0
_cell_angle_beta                  90.0
_cell_angle_gamma                 90.0
loop_
_atom_site_label
_atom_site_type_symbol
_atom_site_fract_x
_atom_site_fract_y
_atom_site_fract_z
V1    V   0.00000  0.15221  0.13281
V2    V   0.00000  0.84779  0.86719
V3    V   0.50000  0.15221  0.36719
V4    V   0.50000  0.84779  0.63281
EC1    EC   0.14723  0.38149  0.33280
EC2    EC   0.14723  0.61851  0.66720
EC3    EC   0.35277  0.38149  0.16720
EC4    EC   0.35277  0.61851  0.83280
EC5    EC   0.64723  0.38149  0.16720
EC6    EC   0.64723  0.61851  0.83280
EC7    EC   0.85277  0.38149  0.33280
EC8    EC   0.85277  0.61851  0.66720
E1    E   0.00000  0.00000  0.00000
E2    E   0.07362  0.26685  0.23280
E3    E   0.07362  0.73315  0.76720
E4    E   0.14723  0.50000  0.50000
E5    E   0.25000  0.38149  0.25000
E6    E   0.25000  0.61851  0.75000
E7    E   0.35277  0.50000  0.00000
E8    E   0.42638  0.26685  0.26720
E9    E   0.42638  0.73315  0.73280
E10   E   0.50000  0.00000  0.50000
E11   E   0.57362  0.26685  0.26720
E12   E   0.57362  0.73315  0.73280
E13   E   0.64723  0.50000  0.00000
E14   E   0.75000  0.38149  0.25000
E15   E   0.75000  0.61851  0.75000
E16   E   0.85277  0.50000  0.50000
E17   E   0.92638  0.26685  0.23280
E18   E   0.92638  0.73315  0.76720
loop_
