data_noq_C12/c1  hall_number: 107, V_con: 4, EC_con: 4
_audit_creation_date              2025-03-06
_audit_creation_method            'MOFbuilder_1.0'
_symmetry_space_group_name_H-M    'P1'
_symmetry_Int_Tables_number       1
_symmetry_cell_setting            triclinic
loop_
_symmetry_equiv_pos_as_xyz
  x,y,z
_cell_length_a                    23.171
_cell_length_b                    39.3625
_cell_length_c                    24.714299999999998
_cell_angle_alpha                 90.0
_cell_angle_beta                  113.645
_cell_angle_gamma                 90.0
loop_
_atom_site_label
_atom_site_type_symbol
_atom_site_fract_x
_atom_site_fract_y
_atom_site_fract_z
V1    V   0.08488  0.11207  0.90681
V2    V   0.08488  0.38793  0.09319
V3    V   0.41512  0.11207  0.40681
V4    V   0.41512  0.38793  0.59319
V5    V   0.58488  0.61207  0.40681
V6    V   0.58488  0.88793  0.59319
V7    V   0.91512  0.61207  0.90681
V8    V   0.91512  0.88793  0.09319
EC1    EC   0.00000  0.23220  0.75000
EC2    EC   0.00000  0.26780  0.25000
EC3    EC   0.00000  0.73220  0.75000
EC4    EC   0.00000  0.76780  0.25000
EC5    EC   0.50000  0.23220  0.25000
EC6    EC   0.50000  0.26780  0.75000
EC7    EC   0.50000  0.73220  0.25000
EC8    EC   0.50000  0.76780  0.75000
E1    E   0.00000  0.00000  0.00000
E2    E   0.00000  0.11207  0.75000
E3    E   0.00000  0.38793  0.25000
E4    E   0.00000  0.50000  0.00000
E5    E   0.00000  0.61207  0.75000
E6    E   0.00000  0.88793  0.25000
E7    E   0.04244  0.18994  0.07840
E8    E   0.04244  0.31006  0.92160
E9    E   0.20756  0.17214  0.82840
E10   E   0.20756  0.32786  0.17160
E11   E   0.29244  0.17214  0.32840
E12   E   0.29244  0.32786  0.67160
E13   E   0.45756  0.18994  0.57840
E14   E   0.45756  0.31006  0.42160
E15   E   0.50000  0.00000  0.50000
E16   E   0.50000  0.11207  0.25000
E17   E   0.50000  0.38793  0.75000
E18   E   0.50000  0.50000  0.50000
E19   E   0.50000  0.61207  0.25000
E20   E   0.50000  0.88793  0.75000
E21   E   0.54244  0.68994  0.57840
E22   E   0.54244  0.81006  0.42160
E23   E   0.70756  0.67214  0.32840
E24   E   0.70756  0.82786  0.67160
E25   E   0.79244  0.67214  0.82840
E26   E   0.79244  0.82786  0.17160
E27   E   0.95756  0.68994  0.07840
E28   E   0.95756  0.81006  0.92160
loop_
