data_nov_Cmca  hall_number: 304, V_con: 5
_audit_creation_date              2025-03-06
_audit_creation_method            'MOFbuilder_1.0'
_symmetry_space_group_name_H-M    'P1'
_symmetry_Int_Tables_number       1
_symmetry_cell_setting            triclinic
loop_
_symmetry_equiv_pos_as_xyz
  x,y,z
_cell_length_a                    18.9355
_cell_length_b                    29.613
_cell_length_c                    15.975
_cell_angle_alpha                 90.0
_cell_angle_beta                  90.0
_cell_angle_gamma                 90.0
loop_
_atom_site_label
_atom_site_type_symbol
_atom_site_fract_x
_atom_site_fract_y
_atom_site_fract_z
V1    V   0.00000  0.14841  0.14925
V2    V   0.00000  0.35159  0.64925
V3    V   0.00000  0.64841  0.35075
V4    V   0.00000  0.85159  0.85075
V5    V   0.50000  0.14841  0.35075
V6    V   0.50000  0.35159  0.85075
V7    V   0.50000  0.64841  0.14925
V8    V   0.50000  0.85159  0.64925
E1    E   0.00000  0.00000  0.00000
E2    E   0.00000  0.25000  0.39925
E3    E   0.00000  0.25000  0.89925
E4    E   0.00000  0.50000  0.50000
E5    E   0.00000  0.75000  0.10075
E6    E   0.00000  0.75000  0.60075
E7    E   0.25000  0.14841  0.25000
E8    E   0.25000  0.35159  0.75000
E9    E   0.25000  0.64841  0.25000
E10   E   0.25000  0.85159  0.75000
E11   E   0.50000  0.00000  0.50000
E12   E   0.50000  0.25000  0.10075
E13   E   0.50000  0.25000  0.60075
E14   E   0.50000  0.50000  0.00000
E15   E   0.50000  0.75000  0.39925
E16   E   0.50000  0.75000  0.89925
E17   E   0.75000  0.14841  0.25000
E18   E   0.75000  0.35159  0.75000
E19   E   0.75000  0.64841  0.25000
E20   E   0.75000  0.85159  0.75000
loop_
