data_npo-e_P63/mmc  hall_number: 488, V_con: 6, EC_con: 6
_audit_creation_date              2025-03-06
_audit_creation_method            'MOFbuilder_1.0'
_symmetry_space_group_name_H-M    'P1'
_symmetry_Int_Tables_number       1
_symmetry_cell_setting            triclinic
loop_
_symmetry_equiv_pos_as_xyz
  x,y,z
_cell_length_a                    34.495
_cell_length_b                    34.495
_cell_length_c                    20.0
_cell_angle_alpha                 90.0
_cell_angle_beta                  90.0
_cell_angle_gamma                 120.0
loop_
_atom_site_label
_atom_site_type_symbol
_atom_site_fract_x
_atom_site_fract_y
_atom_site_fract_z
V1    V   0.23670  0.47340  0.75000
V2    V   0.23670  0.76330  0.75000
V3    V   0.47340  0.23670  0.25000
V4    V   0.52660  0.76330  0.75000
V5    V   0.76330  0.23670  0.25000
V6    V   0.76330  0.52660  0.25000
EC1    EC   0.00000  0.50000  0.00000
EC2    EC   0.00000  0.50000  0.50000
EC3    EC   0.50000  0.00000  0.00000
EC4    EC   0.50000  0.00000  0.50000
EC5    EC   0.50000  0.50000  0.00000
EC6    EC   0.50000  0.50000  0.50000
E1    E   0.00000  0.50000  0.25000
E2    E   0.00000  0.50000  0.75000
E3    E   0.11835  0.48670  0.62500
E4    E   0.11835  0.48670  0.87500
E5    E   0.11835  0.63165  0.62500
E6    E   0.11835  0.63165  0.87500
E7    E   0.23670  0.61835  0.75000
E8    E   0.23670  0.61835  0.75000
E9    E   0.36835  0.48670  0.62500
E10   E   0.36835  0.48670  0.87500
E11   E   0.36835  0.88165  0.62500
E12   E   0.36835  0.88165  0.87500
E13   E   0.38165  0.61835  0.75000
E14   E   0.38165  0.76330  0.75000
E15   E   0.38165  0.61835  0.75000
E16   E   0.38165  0.76330  0.75000
E17   E   0.48670  0.11835  0.12500
E18   E   0.48670  0.11835  0.37500
E19   E   0.48670  0.36835  0.12500
E20   E   0.48670  0.36835  0.37500
E21   E   0.50000  0.00000  0.25000
E22   E   0.50000  0.00000  0.75000
E23   E   0.50000  0.50000  0.25000
E24   E   0.50000  0.50000  0.75000
E25   E   0.51330  0.63165  0.62500
E26   E   0.51330  0.63165  0.87500
E27   E   0.51330  0.88165  0.62500
E28   E   0.51330  0.88165  0.87500
E29   E   0.61835  0.23670  0.25000
E30   E   0.61835  0.38165  0.25000
E31   E   0.61835  0.23670  0.25000
E32   E   0.61835  0.38165  0.25000
E33   E   0.63165  0.11835  0.12500
E34   E   0.63165  0.11835  0.37500
E35   E   0.63165  0.51330  0.12500
E36   E   0.63165  0.51330  0.37500
E37   E   0.76330  0.38165  0.25000
E38   E   0.76330  0.38165  0.25000
E39   E   0.88165  0.36835  0.12500
E40   E   0.88165  0.36835  0.37500
E41   E   0.88165  0.51330  0.12500
E42   E   0.88165  0.51330  0.37500
loop_
