data_nva_Cmca  hall_number: 304, V_con: 3, EC_con: 3
_audit_creation_date              2025-03-06
_audit_creation_method            'MOFbuilder_1.0'
_symmetry_space_group_name_H-M    'P1'
_symmetry_Int_Tables_number       1
_symmetry_cell_setting            triclinic
loop_
_symmetry_equiv_pos_as_xyz
  x,y,z
_cell_length_a                    50.807399999999994
_cell_length_b                    42.8822
_cell_length_c                    31.815600000000003
_cell_angle_alpha                 90.0
_cell_angle_beta                  90.0
_cell_angle_gamma                 90.0
loop_
_atom_site_label
_atom_site_type_symbol
_atom_site_fract_x
_atom_site_fract_y
_atom_site_fract_z
V1    V   0.09841  0.00000  0.50000
V2    V   0.09841  0.50000  0.00000
V3    V   0.40159  0.00000  0.00000
V4    V   0.40159  0.50000  0.50000
V5    V   0.59841  0.00000  0.00000
V6    V   0.59841  0.50000  0.50000
V7    V   0.90159  0.00000  0.50000
V8    V   0.90159  0.50000  0.00000
EC1    EC   0.22027  0.16736  0.39981
EC2    EC   0.22027  0.33264  0.89981
EC3    EC   0.22027  0.66736  0.10019
EC4    EC   0.22027  0.83264  0.60019
EC5    EC   0.27973  0.16736  0.10019
EC6    EC   0.27973  0.33264  0.60019
EC7    EC   0.27973  0.66736  0.39981
EC8    EC   0.27973  0.83264  0.89981
EC9    EC   0.72027  0.16736  0.10019
EC10   EC   0.72027  0.33264  0.60019
EC11   EC   0.72027  0.66736  0.39981
EC12   EC   0.72027  0.83264  0.89981
EC13   EC   0.77973  0.16736  0.39981
EC14   EC   0.77973  0.33264  0.89981
EC15   EC   0.77973  0.66736  0.10019
EC16   EC   0.77973  0.83264  0.60019
E1    E   0.00000  0.00000  0.50000
E2    E   0.00000  0.50000  0.00000
E3    E   0.15934  0.08368  0.44991
E4    E   0.15934  0.41632  0.94991
E5    E   0.15934  0.58368  0.05009
E6    E   0.15934  0.91632  0.55009
E7    E   0.25000  0.16736  0.25000
E8    E   0.25000  0.25000  0.00000
E9    E   0.25000  0.25000  0.50000
E10   E   0.25000  0.33264  0.75000
E11   E   0.25000  0.66736  0.25000
E12   E   0.25000  0.75000  0.00000
E13   E   0.25000  0.75000  0.50000
E14   E   0.25000  0.83264  0.75000
E15   E   0.34066  0.08368  0.05009
E16   E   0.34066  0.41632  0.55009
E17   E   0.34066  0.58368  0.44991
E18   E   0.34066  0.91632  0.94991
E19   E   0.50000  0.00000  0.00000
E20   E   0.50000  0.50000  0.50000
E21   E   0.65934  0.08368  0.05009
E22   E   0.65934  0.41632  0.55009
E23   E   0.65934  0.58368  0.44991
E24   E   0.65934  0.91632  0.94991
E25   E   0.75000  0.16736  0.25000
E26   E   0.75000  0.25000  0.00000
E27   E   0.75000  0.25000  0.50000
E28   E   0.75000  0.33264  0.75000
E29   E   0.75000  0.66736  0.25000
E30   E   0.75000  0.75000  0.00000
E31   E   0.75000  0.75000  0.50000
E32   E   0.75000  0.83264  0.75000
E33   E   0.84066  0.08368  0.44991
E34   E   0.84066  0.41632  0.94991
E35   E   0.84066  0.58368  0.05009
E36   E   0.84066  0.91632  0.55009
loop_
