data_ofo_P6422  hall_number: 475, V_con: 3
_audit_creation_date              2025-03-06
_audit_creation_method            'MOFbuilder_1.0'
_symmetry_space_group_name_H-M    'P1'
_symmetry_Int_Tables_number       1
_symmetry_cell_setting            triclinic
loop_
_symmetry_equiv_pos_as_xyz
  x,y,z
_cell_length_a                    15.785
_cell_length_b                    15.785
_cell_length_c                    41.1779
_cell_angle_alpha                 90.0
_cell_angle_beta                  90.0
_cell_angle_gamma                 120.0
loop_
_atom_site_label
_atom_site_type_symbol
_atom_site_fract_x
_atom_site_fract_y
_atom_site_fract_z
V1    V   0.13850  0.36743  0.73975
V2    V   0.13850  0.77107  0.92692
V3    V   0.22893  0.36743  0.26025
V4    V   0.22893  0.86150  0.40641
V5    V   0.36743  0.13850  0.59359
V6    V   0.36743  0.22893  0.07308
V7    V   0.63257  0.77107  0.07308
V8    V   0.63257  0.86150  0.59359
V9    V   0.77107  0.13850  0.40641
V10   V   0.77107  0.63257  0.26025
V11   V   0.86150  0.22893  0.92692
V12   V   0.86150  0.63257  0.73975
E1    E   0.00000  0.50000  0.26025
E2    E   0.00000  0.50000  0.40641
E3    E   0.11446  0.22893  0.00000
E4    E   0.11446  0.88553  0.66667
E5    E   0.11447  0.22893  0.00000
E6    E   0.11447  0.88554  0.66667
E7    E   0.13850  0.56925  0.83333
E8    E   0.13850  0.56925  0.83334
E9    E   0.22893  0.11446  0.33333
E10   E   0.22893  0.11447  0.33333
E11   E   0.43075  0.56925  0.16667
E12   E   0.43075  0.86150  0.50000
E13   E   0.43075  0.56925  0.16666
E14   E   0.43075  0.86150  0.50000
E15   E   0.50000  0.00000  0.07308
E16   E   0.50000  0.00000  0.92692
E17   E   0.50000  0.50000  0.59359
E18   E   0.50000  0.50000  0.73975
E19   E   0.56925  0.13850  0.50000
E20   E   0.56925  0.13850  0.50000
E21   E   0.56925  0.43075  0.16666
E22   E   0.56925  0.43075  0.16667
E23   E   0.77107  0.88553  0.33333
E24   E   0.77107  0.88554  0.33333
E25   E   0.86150  0.43075  0.83334
E26   E   0.86150  0.43075  0.83333
E27   E   0.88553  0.11446  0.66667
E28   E   0.88553  0.77107  0.00000
E29   E   0.88554  0.11447  0.66667
E30   E   0.88554  0.77107  0.00000
loop_
