data_osc_Pnma  hall_number: 292, V_con: 6
_audit_creation_date              2025-03-06
_audit_creation_method            'MOFbuilder_1.0'
_symmetry_space_group_name_H-M    'P1'
_symmetry_Int_Tables_number       1
_symmetry_cell_setting            triclinic
loop_
_symmetry_equiv_pos_as_xyz
  x,y,z
_cell_length_a                    19.117900000000002
_cell_length_b                    29.062
_cell_length_c                    17.0468
_cell_angle_alpha                 90.0
_cell_angle_beta                  90.0
_cell_angle_gamma                 90.0
loop_
_atom_site_label
_atom_site_type_symbol
_atom_site_fract_x
_atom_site_fract_y
_atom_site_fract_z
V1    V   0.18169  0.57796  0.83615
V2    V   0.18169  0.92204  0.83615
V3    V   0.31831  0.07796  0.33615
V4    V   0.31831  0.42204  0.33615
V5    V   0.68169  0.57796  0.66385
V6    V   0.68169  0.92204  0.66385
V7    V   0.81831  0.07796  0.16385
V8    V   0.81831  0.42204  0.16385
E1    E   0.00000  0.00000  0.00000
E2    E   0.00000  0.50000  0.00000
E3    E   0.06831  0.07796  0.25000
E4    E   0.06831  0.42204  0.25000
E5    E   0.18169  0.75000  0.83615
E6    E   0.25000  0.00000  0.08615
E7    E   0.25000  0.00000  0.58615
E8    E   0.25000  0.50000  0.08615
E9    E   0.25000  0.50000  0.58615
E10   E   0.31831  0.25000  0.33615
E11   E   0.43169  0.57796  0.75000
E12   E   0.43169  0.92204  0.75000
E13   E   0.50000  0.00000  0.50000
E14   E   0.50000  0.50000  0.50000
E15   E   0.56831  0.07796  0.25000
E16   E   0.56831  0.42204  0.25000
E17   E   0.68169  0.75000  0.66385
E18   E   0.75000  0.00000  0.41385
E19   E   0.75000  0.00000  0.91385
E20   E   0.75000  0.50000  0.41385
E21   E   0.75000  0.50000  0.91385
E22   E   0.81831  0.25000  0.16385
E23   E   0.93169  0.57796  0.75000
E24   E   0.93169  0.92204  0.75000
loop_
