data_osd_Pnma  hall_number: 292, V_con: 8
_audit_creation_date              2025-03-06
_audit_creation_method            'MOFbuilder_1.0'
_symmetry_space_group_name_H-M    'P1'
_symmetry_Int_Tables_number       1
_symmetry_cell_setting            triclinic
loop_
_symmetry_equiv_pos_as_xyz
  x,y,z
_cell_length_a                    19.8183
_cell_length_b                    34.956900000000005
_cell_length_c                    10.0
_cell_angle_alpha                 90.0
_cell_angle_beta                  90.0
_cell_angle_gamma                 90.0
loop_
_atom_site_label
_atom_site_type_symbol
_atom_site_fract_x
_atom_site_fract_y
_atom_site_fract_z
V1    V   0.13982  0.60697  0.81724
V2    V   0.13982  0.89303  0.81724
V3    V   0.36018  0.10697  0.31724
V4    V   0.36018  0.39303  0.31724
V5    V   0.63982  0.60697  0.68276
V6    V   0.63982  0.89303  0.68276
V7    V   0.86018  0.10697  0.18276
V8    V   0.86018  0.39303  0.18276
E1    E   0.00000  0.00000  0.00000
E2    E   0.00000  0.50000  0.00000
E3    E   0.11018  0.10697  0.25000
E4    E   0.11018  0.39303  0.25000
E5    E   0.13982  0.60697  0.31724
E6    E   0.13982  0.75000  0.81724
E7    E   0.13982  0.89303  0.31724
E8    E   0.25000  0.00000  0.06724
E9    E   0.25000  0.00000  0.56724
E10   E   0.25000  0.50000  0.06724
E11   E   0.25000  0.50000  0.56724
E12   E   0.36018  0.10697  0.81724
E13   E   0.36018  0.25000  0.31724
E14   E   0.36018  0.39303  0.81724
E15   E   0.38982  0.60697  0.75000
E16   E   0.38982  0.89303  0.75000
E17   E   0.50000  0.00000  0.50000
E18   E   0.50000  0.50000  0.50000
E19   E   0.61018  0.10697  0.25000
E20   E   0.61018  0.39303  0.25000
E21   E   0.63982  0.60697  0.18276
E22   E   0.63982  0.75000  0.68276
E23   E   0.63982  0.89303  0.18276
E24   E   0.75000  0.00000  0.43276
E25   E   0.75000  0.00000  0.93276
E26   E   0.75000  0.50000  0.43276
E27   E   0.75000  0.50000  0.93276
E28   E   0.86018  0.10697  0.68276
E29   E   0.86018  0.25000  0.18276
E30   E   0.86018  0.39303  0.68276
E31   E   0.88982  0.60697  0.75000
E32   E   0.88982  0.89303  0.75000
loop_
