data_oso_P6222  hall_number: 474, V_con: 4, EC_con: 4
_audit_creation_date              2025-03-06
_audit_creation_method            'MOFbuilder_1.0'
_symmetry_space_group_name_H-M    'P1'
_symmetry_Int_Tables_number       1
_symmetry_cell_setting            triclinic
loop_
_symmetry_equiv_pos_as_xyz
  x,y,z
_cell_length_a                    34.4676
_cell_length_b                    34.4676
_cell_length_c                    26.839599999999997
_cell_angle_alpha                 90.0
_cell_angle_beta                  90.0
_cell_angle_gamma                 120.0
loop_
_atom_site_label
_atom_site_type_symbol
_atom_site_fract_x
_atom_site_fract_y
_atom_site_fract_z
V1    V   0.00000  0.50000  0.16666
V2    V   0.00000  0.50000  0.16667
V3    V   0.50000  0.00000  0.50000
V4    V   0.50000  0.00000  0.50000
V5    V   0.50000  0.50000  0.83333
V6    V   0.50000  0.50000  0.83334
EC1    EC   0.29012  0.58025  0.00000
EC2    EC   0.29012  0.70987  0.33333
EC3    EC   0.29013  0.58025  0.00000
EC4    EC   0.29013  0.70988  0.33333
EC5    EC   0.41975  0.70987  0.66667
EC6    EC   0.41975  0.70988  0.66667
EC7    EC   0.58025  0.29012  0.66667
EC8    EC   0.58025  0.29013  0.66667
EC9    EC   0.70987  0.29012  0.33333
EC10   EC   0.70987  0.41975  0.00000
EC11   EC   0.70988  0.29013  0.33333
EC12   EC   0.70988  0.41975  0.00000
E1    E   0.14506  0.54013  0.08333
E2    E   0.14506  0.60493  0.25000
E3    E   0.29013  0.64506  0.16667
E4    E   0.29013  0.64507  0.16666
E5    E   0.35493  0.64506  0.83333
E6    E   0.35493  0.70987  0.50000
E7    E   0.35494  0.64507  0.83334
E8    E   0.35494  0.70987  0.50000
E9    E   0.39507  0.54013  0.91667
E10   E   0.39507  0.85494  0.41666
E11   E   0.45987  0.60493  0.75000
E12   E   0.45987  0.85494  0.58334
E13   E   0.54013  0.14506  0.58334
E14   E   0.54013  0.39507  0.75000
E15   E   0.60493  0.14506  0.41666
E16   E   0.60493  0.45987  0.91667
E17   E   0.64506  0.29013  0.50000
E18   E   0.64506  0.35493  0.83334
E19   E   0.64507  0.29013  0.50000
E20   E   0.64507  0.35494  0.83333
E21   E   0.70987  0.35493  0.16666
E22   E   0.70987  0.35494  0.16667
E23   E   0.85494  0.39507  0.25000
E24   E   0.85494  0.45987  0.08333
loop_
