data_pcu-g-e_Ia-3  hall_number: 502, V_con: 4, EC_con: 4
_audit_creation_date              2025-03-06
_audit_creation_method            'MOFbuilder_1.0'
_symmetry_space_group_name_H-M    'P1'
_symmetry_Int_Tables_number       1
_symmetry_cell_setting            triclinic
loop_
_symmetry_equiv_pos_as_xyz
  x,y,z
_cell_length_a                    61.1996
_cell_length_b                    61.1996
_cell_length_c                    61.1996
_cell_angle_alpha                 90.0
_cell_angle_beta                  90.0
_cell_angle_gamma                 90.0
loop_
_atom_site_label
_atom_site_type_symbol
_atom_site_fract_x
_atom_site_fract_y
_atom_site_fract_z
V1    V   0.00000  0.25000  0.32944
V2    V   0.00000  0.25000  0.82944
V3    V   0.00000  0.75000  0.17056
V4    V   0.00000  0.75000  0.67056
V5    V   0.17056  0.00000  0.75000
V6    V   0.17056  0.50000  0.25000
V7    V   0.25000  0.17056  0.50000
V8    V   0.25000  0.32944  0.00000
V9    V   0.25000  0.67056  0.50000
V10   V   0.25000  0.82944  0.00000
V11   V   0.32944  0.00000  0.25000
V12   V   0.32944  0.50000  0.75000
V13   V   0.50000  0.25000  0.17056
V14   V   0.50000  0.25000  0.67056
V15   V   0.50000  0.75000  0.32944
V16   V   0.50000  0.75000  0.82944
V17   V   0.67056  0.00000  0.75000
V18   V   0.67056  0.50000  0.25000
V19   V   0.75000  0.17056  0.00000
V20   V   0.75000  0.32944  0.50000
V21   V   0.75000  0.67056  0.00000
V22   V   0.75000  0.82944  0.50000
V23   V   0.82944  0.00000  0.25000
V24   V   0.82944  0.50000  0.75000
EC1    EC   0.12222  0.15298  0.78097
EC2    EC   0.12222  0.34702  0.28097
EC3    EC   0.12222  0.65298  0.21903
EC4    EC   0.12222  0.84702  0.71903
EC5    EC   0.15298  0.21903  0.37778
EC6    EC   0.15298  0.28097  0.87778
EC7    EC   0.15298  0.71903  0.62222
EC8    EC   0.15298  0.78097  0.12222
EC9    EC   0.21903  0.12222  0.65298
EC10   EC   0.21903  0.37778  0.15298
EC11   EC   0.21903  0.62222  0.34702
EC12   EC   0.21903  0.87778  0.84702
EC13   EC   0.28097  0.12222  0.34702
EC14   EC   0.28097  0.37778  0.84702
EC15   EC   0.28097  0.62222  0.65298
EC16   EC   0.28097  0.87778  0.15298
EC17   EC   0.34702  0.21903  0.62222
EC18   EC   0.34702  0.28097  0.12222
EC19   EC   0.34702  0.71903  0.37778
EC20   EC   0.34702  0.78097  0.87778
EC21   EC   0.37778  0.15298  0.21903
EC22   EC   0.37778  0.34702  0.71903
EC23   EC   0.37778  0.65298  0.78097
EC24   EC   0.37778  0.84702  0.28097
EC25   EC   0.62222  0.15298  0.71903
EC26   EC   0.62222  0.34702  0.21903
EC27   EC   0.62222  0.65298  0.28097
EC28   EC   0.62222  0.84702  0.78097
EC29   EC   0.65298  0.21903  0.12222
EC30   EC   0.65298  0.28097  0.62222
EC31   EC   0.65298  0.71903  0.87778
EC32   EC   0.65298  0.78097  0.37778
EC33   EC   0.71903  0.12222  0.84702
EC34   EC   0.71903  0.37778  0.34702
EC35   EC   0.71903  0.62222  0.15298
EC36   EC   0.71903  0.87778  0.65298
EC37   EC   0.78097  0.12222  0.15298
EC38   EC   0.78097  0.37778  0.65298
EC39   EC   0.78097  0.62222  0.84702
EC40   EC   0.78097  0.87778  0.34702
EC41   EC   0.84702  0.21903  0.87778
EC42   EC   0.84702  0.28097  0.37778
EC43   EC   0.84702  0.71903  0.12222
EC44   EC   0.84702  0.78097  0.62222
EC45   EC   0.87778  0.15298  0.28097
EC46   EC   0.87778  0.34702  0.78097
EC47   EC   0.87778  0.65298  0.71903
EC48   EC   0.87778  0.84702  0.21903
E1    E   0.06111  0.20149  0.80520
E2    E   0.06111  0.29851  0.30520
E3    E   0.06111  0.70149  0.19480
E4    E   0.06111  0.79851  0.69480
E5    E   0.07649  0.23452  0.35361
E6    E   0.07649  0.26548  0.85361
E7    E   0.07649  0.73452  0.64639
E8    E   0.07649  0.76548  0.14639
E9    E   0.13760  0.21697  0.82937
E10   E   0.13760  0.28303  0.32937
E11   E   0.13760  0.71697  0.17063
E12   E   0.13760  0.78303  0.67063
E13   E   0.14639  0.07649  0.76548
E14   E   0.14639  0.42351  0.26548
E15   E   0.14639  0.57649  0.23452
E16   E   0.14639  0.92351  0.73452
E17   E   0.17063  0.13760  0.71697
E18   E   0.17063  0.36240  0.21697
E19   E   0.17063  0.63760  0.28303
E20   E   0.17063  0.86240  0.78303
E21   E   0.19480  0.06111  0.70149
E22   E   0.19480  0.43889  0.20149
E23   E   0.19480  0.56111  0.29851
E24   E   0.19480  0.93889  0.79851
E25   E   0.20149  0.19480  0.43889
E26   E   0.20149  0.30520  0.93889
E27   E   0.20149  0.69480  0.56111
E28   E   0.20149  0.80520  0.06111
E29   E   0.21697  0.17063  0.36240
E30   E   0.21697  0.32937  0.86240
E31   E   0.21697  0.67063  0.63760
E32   E   0.21697  0.82937  0.13760
E33   E   0.23452  0.14639  0.57649
E34   E   0.23452  0.35361  0.07649
E35   E   0.23452  0.64639  0.42351
E36   E   0.23452  0.85361  0.92351
E37   E   0.26548  0.14639  0.42351
E38   E   0.26548  0.35361  0.92351
E39   E   0.26548  0.64639  0.57649
E40   E   0.26548  0.85361  0.07649
E41   E   0.28303  0.17063  0.63760
E42   E   0.28303  0.32937  0.13760
E43   E   0.28303  0.67063  0.36240
E44   E   0.28303  0.82937  0.86240
E45   E   0.29851  0.19480  0.56111
E46   E   0.29851  0.30520  0.06111
E47   E   0.29851  0.69480  0.43889
E48   E   0.29851  0.80520  0.93889
E49   E   0.30520  0.06111  0.29851
E50   E   0.30520  0.43889  0.79851
E51   E   0.30520  0.56111  0.70149
E52   E   0.30520  0.93889  0.20149
E53   E   0.32937  0.13760  0.28303
E54   E   0.32937  0.36240  0.78303
E55   E   0.32937  0.63760  0.71697
E56   E   0.32937  0.86240  0.21697
E57   E   0.35361  0.07649  0.23452
E58   E   0.35361  0.42351  0.73452
E59   E   0.35361  0.57649  0.76548
E60   E   0.35361  0.92351  0.26548
E61   E   0.36240  0.21697  0.17063
E62   E   0.36240  0.28303  0.67063
E63   E   0.36240  0.71697  0.82937
E64   E   0.36240  0.78303  0.32937
E65   E   0.42351  0.23452  0.64639
E66   E   0.42351  0.26548  0.14639
E67   E   0.42351  0.73452  0.35361
E68   E   0.42351  0.76548  0.85361
E69   E   0.43889  0.20149  0.19480
E70   E   0.43889  0.29851  0.69480
E71   E   0.43889  0.70149  0.80520
E72   E   0.43889  0.79851  0.30520
E73   E   0.56111  0.20149  0.69480
E74   E   0.56111  0.29851  0.19480
E75   E   0.56111  0.70149  0.30520
E76   E   0.56111  0.79851  0.80520
E77   E   0.57649  0.23452  0.14639
E78   E   0.57649  0.26548  0.64639
E79   E   0.57649  0.73452  0.85361
E80   E   0.57649  0.76548  0.35361
E81   E   0.63760  0.21697  0.67063
E82   E   0.63760  0.28303  0.17063
E83   E   0.63760  0.71697  0.32937
E84   E   0.63760  0.78303  0.82937
E85   E   0.64639  0.07649  0.73452
E86   E   0.64639  0.42351  0.23452
E87   E   0.64639  0.57649  0.26548
E88   E   0.64639  0.92351  0.76548
E89   E   0.67063  0.13760  0.78303
E90   E   0.67063  0.36240  0.28303
E91   E   0.67063  0.63760  0.21697
E92   E   0.67063  0.86240  0.71697
E93   E   0.69480  0.06111  0.79851
E94   E   0.69480  0.43889  0.29851
E95   E   0.69480  0.56111  0.20149
E96   E   0.69480  0.93889  0.70149
E97   E   0.70149  0.19480  0.06111
E98   E   0.70149  0.30520  0.56111
E99   E   0.70149  0.69480  0.93889
E100  E   0.70149  0.80520  0.43889
E101  E   0.71697  0.17063  0.13760
E102  E   0.71697  0.32937  0.63760
E103  E   0.71697  0.67063  0.86240
E104  E   0.71697  0.82937  0.36240
E105  E   0.73452  0.14639  0.92351
E106  E   0.73452  0.35361  0.42351
E107  E   0.73452  0.64639  0.07649
E108  E   0.73452  0.85361  0.57649
E109  E   0.76548  0.14639  0.07649
E110  E   0.76548  0.35361  0.57649
E111  E   0.76548  0.64639  0.92351
E112  E   0.76548  0.85361  0.42351
E113  E   0.78303  0.17063  0.86240
E114  E   0.78303  0.32937  0.36240
E115  E   0.78303  0.67063  0.13760
E116  E   0.78303  0.82937  0.63760
E117  E   0.79851  0.19480  0.93889
E118  E   0.79851  0.30520  0.43889
E119  E   0.79851  0.69480  0.06111
E120  E   0.79851  0.80520  0.56111
E121  E   0.80520  0.06111  0.20149
E122  E   0.80520  0.43889  0.70149
E123  E   0.80520  0.56111  0.79851
E124  E   0.80520  0.93889  0.29851
E125  E   0.82937  0.13760  0.21697
E126  E   0.82937  0.36240  0.71697
E127  E   0.82937  0.63760  0.78303
E128  E   0.82937  0.86240  0.28303
E129  E   0.85361  0.07649  0.26548
E130  E   0.85361  0.42351  0.76548
E131  E   0.85361  0.57649  0.73452
E132  E   0.85361  0.92351  0.23452
E133  E   0.86240  0.21697  0.32937
E134  E   0.86240  0.28303  0.82937
E135  E   0.86240  0.71697  0.67063
E136  E   0.86240  0.78303  0.17063
E137  E   0.92351  0.23452  0.85361
E138  E   0.92351  0.26548  0.35361
E139  E   0.92351  0.73452  0.14639
E140  E   0.92351  0.76548  0.64639
E141  E   0.93889  0.20149  0.30520
E142  E   0.93889  0.29851  0.80520
E143  E   0.93889  0.70149  0.69480
E144  E   0.93889  0.79851  0.19480
loop_
