data_pda_Pm-3m  hall_number: 517, V_con: 8, EC_con: 6
_audit_creation_date              2025-03-06
_audit_creation_method            'MOFbuilder_1.0'
_symmetry_space_group_name_H-M    'P1'
_symmetry_Int_Tables_number       1
_symmetry_cell_setting            triclinic
loop_
_symmetry_equiv_pos_as_xyz
  x,y,z
_cell_length_a                    30.970200000000002
_cell_length_b                    30.970200000000002
_cell_length_c                    30.970200000000002
_cell_angle_alpha                 90.0
_cell_angle_beta                  90.0
_cell_angle_gamma                 90.0
loop_
_atom_site_label
_atom_site_type_symbol
_atom_site_fract_x
_atom_site_fract_y
_atom_site_fract_z
V1    V   0.00000  0.22835  0.22835
V2    V   0.00000  0.22835  0.77165
V3    V   0.00000  0.77165  0.22835
V4    V   0.00000  0.77165  0.77165
V5    V   0.22835  0.00000  0.22835
V6    V   0.22835  0.00000  0.77165
V7    V   0.22835  0.22835  0.00000
V8    V   0.22835  0.77165  0.00000
V9    V   0.77165  0.00000  0.22835
V10   V   0.77165  0.00000  0.77165
V11   V   0.77165  0.22835  0.00000
V12   V   0.77165  0.77165  0.00000
EC1    EC   0.16127  0.16127  0.50000
EC2    EC   0.16127  0.50000  0.16127
EC3    EC   0.16127  0.50000  0.83873
EC4    EC   0.16127  0.83873  0.50000
EC5    EC   0.50000  0.16127  0.16127
EC6    EC   0.50000  0.16127  0.83873
EC7    EC   0.50000  0.83873  0.16127
EC8    EC   0.50000  0.83873  0.83873
EC9    EC   0.83873  0.16127  0.50000
EC10   EC   0.83873  0.50000  0.16127
EC11   EC   0.83873  0.50000  0.83873
EC12   EC   0.83873  0.83873  0.50000
E1    E   0.00000  0.16127  0.50000
E2    E   0.00000  0.50000  0.16127
E3    E   0.00000  0.50000  0.83873
E4    E   0.00000  0.83873  0.50000
E5    E   0.08063  0.19481  0.36417
E6    E   0.08063  0.19481  0.63583
E7    E   0.08063  0.36417  0.19481
E8    E   0.08063  0.36417  0.80519
E9    E   0.08063  0.63583  0.19481
E10   E   0.08063  0.63583  0.80519
E11   E   0.08063  0.80519  0.36417
E12   E   0.08063  0.80519  0.63583
E13   E   0.11417  0.11417  0.22835
E14   E   0.11417  0.11417  0.77165
E15   E   0.11417  0.22835  0.11417
E16   E   0.11417  0.22835  0.88583
E17   E   0.11417  0.77165  0.11417
E18   E   0.11417  0.77165  0.88583
E19   E   0.11417  0.88583  0.22835
E20   E   0.11417  0.88583  0.77165
E21   E   0.16127  0.00000  0.50000
E22   E   0.16127  0.50000  0.00000
E23   E   0.19481  0.08063  0.36417
E24   E   0.19481  0.08063  0.63583
E25   E   0.19481  0.36417  0.08063
E26   E   0.19481  0.36417  0.91937
E27   E   0.19481  0.63583  0.08063
E28   E   0.19481  0.63583  0.91937
E29   E   0.19481  0.91937  0.36417
E30   E   0.19481  0.91937  0.63583
E31   E   0.22835  0.11417  0.11417
E32   E   0.22835  0.11417  0.88583
E33   E   0.22835  0.88583  0.11417
E34   E   0.22835  0.88583  0.88583
E35   E   0.36417  0.08063  0.19481
E36   E   0.36417  0.08063  0.80519
E37   E   0.36417  0.19481  0.08063
E38   E   0.36417  0.19481  0.91937
E39   E   0.36417  0.80519  0.08063
E40   E   0.36417  0.80519  0.91937
E41   E   0.36417  0.91937  0.19481
E42   E   0.36417  0.91937  0.80519
E43   E   0.50000  0.00000  0.16127
E44   E   0.50000  0.00000  0.83873
E45   E   0.50000  0.16127  0.00000
E46   E   0.50000  0.83873  0.00000
E47   E   0.63583  0.08063  0.19481
E48   E   0.63583  0.08063  0.80519
E49   E   0.63583  0.19481  0.08063
E50   E   0.63583  0.19481  0.91937
E51   E   0.63583  0.80519  0.08063
E52   E   0.63583  0.80519  0.91937
E53   E   0.63583  0.91937  0.19481
E54   E   0.63583  0.91937  0.80519
E55   E   0.77165  0.11417  0.11417
E56   E   0.77165  0.11417  0.88583
E57   E   0.77165  0.88583  0.11417
E58   E   0.77165  0.88583  0.88583
E59   E   0.80519  0.08063  0.36417
E60   E   0.80519  0.08063  0.63583
E61   E   0.80519  0.36417  0.08063
E62   E   0.80519  0.36417  0.91937
E63   E   0.80519  0.63583  0.08063
E64   E   0.80519  0.63583  0.91937
E65   E   0.80519  0.91937  0.36417
E66   E   0.80519  0.91937  0.63583
E67   E   0.83873  0.00000  0.50000
E68   E   0.83873  0.50000  0.00000
E69   E   0.88583  0.11417  0.22835
E70   E   0.88583  0.11417  0.77165
E71   E   0.88583  0.22835  0.11417
E72   E   0.88583  0.22835  0.88583
E73   E   0.88583  0.77165  0.11417
E74   E   0.88583  0.77165  0.88583
E75   E   0.88583  0.88583  0.22835
E76   E   0.88583  0.88583  0.77165
E77   E   0.91937  0.19481  0.36417
E78   E   0.91937  0.19481  0.63583
E79   E   0.91937  0.36417  0.19481
E80   E   0.91937  0.36417  0.80519
E81   E   0.91937  0.63583  0.19481
E82   E   0.91937  0.63583  0.80519
E83   E   0.91937  0.80519  0.36417
E84   E   0.91937  0.80519  0.63583
loop_
