data_phw_P6222  hall_number: 474, V_con: 4, EC_con: 3
_audit_creation_date              2025-03-06
_audit_creation_method            'MOFbuilder_1.0'
_symmetry_space_group_name_H-M    'P1'
_symmetry_Int_Tables_number       1
_symmetry_cell_setting            triclinic
loop_
_symmetry_equiv_pos_as_xyz
  x,y,z
_cell_length_a                    23.0893
_cell_length_b                    23.0893
_cell_length_c                    38.745599999999996
_cell_angle_alpha                 90.0
_cell_angle_beta                  90.0
_cell_angle_gamma                 120.0
loop_
_atom_site_label
_atom_site_type_symbol
_atom_site_fract_x
_atom_site_fract_y
_atom_site_fract_z
V1    V   0.00000  0.50000  0.66667
V2    V   0.50000  0.00000  0.00000
V3    V   0.50000  0.50000  0.33333
EC1    EC   0.12502  0.25005  0.50000
EC2    EC   0.12502  0.87497  0.83333
EC3    EC   0.12503  0.25005  0.50000
EC4    EC   0.12503  0.87498  0.83334
EC5    EC   0.25005  0.12502  0.16666
EC6    EC   0.25005  0.12503  0.16667
EC7    EC   0.74995  0.87497  0.16667
EC8    EC   0.74995  0.87498  0.16666
EC9    EC   0.87497  0.12502  0.83334
EC10   EC   0.87497  0.74995  0.50000
EC11   EC   0.87498  0.12503  0.83333
EC12   EC   0.87498  0.74995  0.50000
E1    E   0.00000  0.00000  0.16666
E2    E   0.00000  0.00000  0.16667
E3    E   0.00000  0.00000  0.50000
E4    E   0.00000  0.00000  0.50000
E5    E   0.00000  0.00000  0.83333
E6    E   0.00000  0.00000  0.83334
E7    E   0.06251  0.37502  0.58334
E8    E   0.06251  0.68749  0.75000
E9    E   0.31251  0.37502  0.41666
E10   E   0.31251  0.93749  0.91667
E11   E   0.37502  0.06251  0.08333
E12   E   0.37502  0.31251  0.25000
E13   E   0.62498  0.68749  0.25000
E14   E   0.62498  0.93749  0.08333
E15   E   0.68749  0.06251  0.91667
E16   E   0.68749  0.62498  0.41666
E17   E   0.93749  0.31251  0.75000
E18   E   0.93749  0.62498  0.58334
loop_
