data_pmc_I4132  hall_number: 510, V_con: 6
_audit_creation_date              2025-03-06
_audit_creation_method            'MOFbuilder_1.0'
_symmetry_space_group_name_H-M    'P1'
_symmetry_Int_Tables_number       1
_symmetry_cell_setting            triclinic
loop_
_symmetry_equiv_pos_as_xyz
  x,y,z
_cell_length_a                    52.4252
_cell_length_b                    52.4252
_cell_length_c                    52.4252
_cell_angle_alpha                 90.0
_cell_angle_beta                  90.0
_cell_angle_gamma                 90.0
loop_
_atom_site_label
_atom_site_type_symbol
_atom_site_fract_x
_atom_site_fract_y
_atom_site_fract_z
V1    V   0.02245  0.33380  0.54977
V2    V   0.02245  0.66620  0.95023
V3    V   0.04977  0.47755  0.66620
V4    V   0.04977  0.52245  0.83380
V5    V   0.08380  0.27245  0.70023
V6    V   0.08380  0.72755  0.79977
V7    V   0.16620  0.45023  0.52245
V8    V   0.16620  0.54977  0.97755
V9    V   0.20023  0.41620  0.72755
V10   V   0.20023  0.58380  0.77245
V11   V   0.22755  0.29977  0.58380
V12   V   0.22755  0.70023  0.91620
V13   V   0.27245  0.29977  0.41620
V14   V   0.27245  0.70023  0.08380
V15   V   0.29977  0.41620  0.27245
V16   V   0.29977  0.58380  0.22755
V17   V   0.33380  0.45023  0.47755
V18   V   0.33380  0.54977  0.02245
V19   V   0.41620  0.27245  0.29977
V20   V   0.41620  0.72755  0.20023
V21   V   0.45023  0.47755  0.33380
V22   V   0.45023  0.52245  0.16620
V23   V   0.47755  0.33380  0.45023
V24   V   0.47755  0.66620  0.04977
V25   V   0.52245  0.16620  0.45023
V26   V   0.52245  0.83380  0.04977
V27   V   0.54977  0.02245  0.33380
V28   V   0.54977  0.97755  0.16620
V29   V   0.58380  0.22755  0.29977
V30   V   0.58380  0.77245  0.20023
V31   V   0.66620  0.04977  0.47755
V32   V   0.66620  0.95023  0.02245
V33   V   0.70023  0.08380  0.27245
V34   V   0.70023  0.91620  0.22755
V35   V   0.72755  0.20023  0.41620
V36   V   0.72755  0.79977  0.08380
V37   V   0.77245  0.20023  0.58380
V38   V   0.77245  0.79977  0.91620
V39   V   0.79977  0.08380  0.72755
V40   V   0.79977  0.91620  0.77245
V41   V   0.83380  0.04977  0.52245
V42   V   0.83380  0.95023  0.97755
V43   V   0.91620  0.22755  0.70023
V44   V   0.91620  0.77245  0.79977
V45   V   0.95023  0.02245  0.66620
V46   V   0.95023  0.97755  0.83380
V47   V   0.97755  0.16620  0.54977
V48   V   0.97755  0.83380  0.95023
E1    E   0.00000  0.25000  0.54977
E2    E   0.00000  0.25000  0.70023
E3    E   0.00000  0.75000  0.79977
E4    E   0.00000  0.75000  0.95023
E5    E   0.03067  0.21933  0.62500
E6    E   0.03067  0.78067  0.87500
E7    E   0.03067  0.21933  0.62500
E8    E   0.03067  0.78067  0.87500
E9    E   0.03611  0.40567  0.60799
E10   E   0.03611  0.59433  0.89201
E11   E   0.04977  0.50000  0.75000
E12   E   0.05312  0.30312  0.62500
E13   E   0.05312  0.69688  0.87500
E14   E   0.05312  0.30312  0.62500
E15   E   0.05312  0.69688  0.87500
E16   E   0.06679  0.37500  0.68321
E17   E   0.06679  0.62500  0.81679
E18   E   0.06679  0.37500  0.68321
E19   E   0.06679  0.62500  0.81679
E20   E   0.09433  0.39201  0.53611
E21   E   0.09433  0.60799  0.96389
E22   E   0.10799  0.46389  0.59433
E23   E   0.10799  0.53611  0.90567
E24   E   0.12500  0.31679  0.56679
E25   E   0.12500  0.44688  0.69688
E26   E   0.12500  0.46933  0.78067
E27   E   0.12500  0.53067  0.71933
E28   E   0.12500  0.55312  0.80312
E29   E   0.12500  0.68321  0.93321
E30   E   0.14201  0.34433  0.71389
E31   E   0.14201  0.65567  0.78611
E32   E   0.15567  0.28611  0.64201
E33   E   0.15567  0.71389  0.85799
E34   E   0.18321  0.43321  0.62500
E35   E   0.18321  0.56679  0.87500
E36   E   0.18321  0.43321  0.62500
E37   E   0.18321  0.56679  0.87500
E38   E   0.19688  0.37500  0.55312
E39   E   0.19688  0.62500  0.94688
E40   E   0.19688  0.37500  0.55312
E41   E   0.19688  0.62500  0.94688
E42   E   0.20023  0.50000  0.75000
E43   E   0.21389  0.35799  0.65567
E44   E   0.21389  0.64201  0.84433
E45   E   0.21933  0.37500  0.46933
E46   E   0.21933  0.62500  0.03067
E47   E   0.21933  0.37500  0.46933
E48   E   0.21933  0.62500  0.03067
E49   E   0.25000  0.29977  0.50000
E50   E   0.25000  0.45023  0.50000
E51   E   0.25000  0.54977  0.00000
E52   E   0.25000  0.70023  0.00000
E53   E   0.28067  0.37500  0.53067
E54   E   0.28067  0.62500  0.96933
E55   E   0.28611  0.35799  0.34433
E56   E   0.28611  0.64201  0.15567
E57   E   0.29977  0.50000  0.25000
E58   E   0.30312  0.37500  0.44688
E59   E   0.30312  0.62500  0.05312
E60   E   0.30312  0.62500  0.05312
E61   E   0.31679  0.43321  0.37500
E62   E   0.31679  0.56679  0.12500
E63   E   0.34433  0.28611  0.35799
E64   E   0.34433  0.71389  0.14201
E65   E   0.35799  0.34433  0.28611
E66   E   0.35799  0.65567  0.21389
E67   E   0.37500  0.31679  0.43321
E68   E   0.37500  0.44688  0.30312
E69   E   0.37500  0.46933  0.21933
E70   E   0.37500  0.46933  0.21933
E71   E   0.37500  0.53067  0.28067
E72   E   0.37500  0.55312  0.19688
E73   E   0.37500  0.55312  0.19688
E74   E   0.37500  0.68321  0.06679
E75   E   0.37500  0.68321  0.06679
E76   E   0.39201  0.46389  0.40567
E77   E   0.39201  0.53611  0.09433
E78   E   0.40567  0.39201  0.46389
E79   E   0.40567  0.60799  0.03611
E80   E   0.43321  0.37500  0.31679
E81   E   0.43321  0.62500  0.18321
E82   E   0.43321  0.62500  0.18321
E83   E   0.44688  0.30312  0.37500
E84   E   0.44688  0.69688  0.12500
E85   E   0.45023  0.50000  0.25000
E86   E   0.46389  0.40567  0.39201
E87   E   0.46389  0.59433  0.10799
E88   E   0.46933  0.21933  0.37500
E89   E   0.46933  0.21933  0.37500
E90   E   0.46933  0.78067  0.12500
E91   E   0.50000  0.25000  0.29977
E92   E   0.50000  0.25000  0.45023
E93   E   0.50000  0.75000  0.04977
E94   E   0.50000  0.75000  0.20023
E95   E   0.53067  0.28067  0.37500
E96   E   0.53067  0.71933  0.12500
E97   E   0.53611  0.09433  0.39201
E98   E   0.53611  0.90567  0.10799
E99   E   0.54977  0.00000  0.25000
E100  E   0.55312  0.19688  0.37500
E101  E   0.55312  0.19688  0.37500
E102  E   0.55312  0.80312  0.12500
E103  E   0.56679  0.12500  0.31679
E104  E   0.56679  0.87500  0.18321
E105  E   0.56679  0.87500  0.18321
E106  E   0.59433  0.10799  0.46389
E107  E   0.59433  0.89201  0.03611
E108  E   0.60799  0.03611  0.40567
E109  E   0.60799  0.96389  0.09433
E110  E   0.62500  0.03067  0.21933
E111  E   0.62500  0.03067  0.21933
E112  E   0.62500  0.05312  0.30312
E113  E   0.62500  0.05312  0.30312
E114  E   0.62500  0.18321  0.43321
E115  E   0.62500  0.18321  0.43321
E116  E   0.62500  0.81679  0.06679
E117  E   0.62500  0.81679  0.06679
E118  E   0.62500  0.94688  0.19688
E119  E   0.62500  0.94688  0.19688
E120  E   0.62500  0.96933  0.28067
E121  E   0.64201  0.15567  0.28611
E122  E   0.64201  0.84433  0.21389
E123  E   0.65567  0.21389  0.35799
E124  E   0.65567  0.78611  0.14201
E125  E   0.68321  0.06679  0.37500
E126  E   0.68321  0.06679  0.37500
E127  E   0.68321  0.93321  0.12500
E128  E   0.69688  0.12500  0.44688
E129  E   0.69688  0.87500  0.05312
E130  E   0.69688  0.87500  0.05312
E131  E   0.70023  0.00000  0.25000
E132  E   0.71389  0.14201  0.34433
E133  E   0.71389  0.85799  0.15567
E134  E   0.71933  0.12500  0.53067
E135  E   0.71933  0.87500  0.96933
E136  E   0.75000  0.04977  0.50000
E137  E   0.75000  0.20023  0.50000
E138  E   0.75000  0.79977  0.00000
E139  E   0.75000  0.95023  0.00000
E140  E   0.78067  0.12500  0.46933
E141  E   0.78067  0.87500  0.03067
E142  E   0.78067  0.87500  0.03067
E143  E   0.78611  0.14201  0.65567
E144  E   0.78611  0.85799  0.84433
E145  E   0.79977  0.00000  0.75000
E146  E   0.80312  0.12500  0.55312
E147  E   0.80312  0.87500  0.94688
E148  E   0.81679  0.06679  0.62500
E149  E   0.81679  0.06679  0.62500
E150  E   0.81679  0.93321  0.87500
E151  E   0.84433  0.21389  0.64201
E152  E   0.84433  0.78611  0.85799
E153  E   0.85799  0.15567  0.71389
E154  E   0.85799  0.84433  0.78611
E155  E   0.87500  0.03067  0.78067
E156  E   0.87500  0.03067  0.78067
E157  E   0.87500  0.05312  0.69688
E158  E   0.87500  0.05312  0.69688
E159  E   0.87500  0.18321  0.56679
E160  E   0.87500  0.18321  0.56679
E161  E   0.87500  0.81679  0.93321
E162  E   0.87500  0.94688  0.80312
E163  E   0.87500  0.96933  0.71933
E164  E   0.89201  0.03611  0.59433
E165  E   0.89201  0.96389  0.90567
E166  E   0.90567  0.10799  0.53611
E167  E   0.90567  0.89201  0.96389
E168  E   0.93321  0.12500  0.68321
E169  E   0.93321  0.87500  0.81679
E170  E   0.94688  0.19688  0.62500
E171  E   0.94688  0.19688  0.62500
E172  E   0.94688  0.80312  0.87500
E173  E   0.95023  0.00000  0.75000
E174  E   0.96389  0.09433  0.60799
E175  E   0.96389  0.90567  0.89201
E176  E   0.96933  0.28067  0.62500
E177  E   0.96933  0.71933  0.87500
loop_
