data_pth-a_P6222  hall_number: 474, V_con: 4, EC_con: 3
_audit_creation_date              2025-03-06
_audit_creation_method            'MOFbuilder_1.0'
_symmetry_space_group_name_H-M    'P1'
_symmetry_Int_Tables_number       1
_symmetry_cell_setting            triclinic
loop_
_symmetry_equiv_pos_as_xyz
  x,y,z
_cell_length_a                    36.326499999999996
_cell_length_b                    36.326499999999996
_cell_length_c                    83.7019
_cell_angle_alpha                 90.0
_cell_angle_beta                  90.0
_cell_angle_gamma                 120.0
loop_
_atom_site_label
_atom_site_type_symbol
_atom_site_fract_x
_atom_site_fract_y
_atom_site_fract_z
V1    V   0.04114  0.15352  0.79109
V2    V   0.04114  0.88762  0.54224
V3    V   0.11238  0.15352  0.20891
V4    V   0.11238  0.95886  0.12442
V5    V   0.15352  0.04114  0.87558
V6    V   0.15352  0.11238  0.45776
V7    V   0.84648  0.88762  0.45776
V8    V   0.84648  0.95886  0.87558
V9    V   0.88762  0.04114  0.12442
V10   V   0.88762  0.84648  0.20891
V11   V   0.95886  0.11238  0.54224
V12   V   0.95886  0.84648  0.79109
EC1    EC   0.01170  0.36858  0.72624
EC2    EC   0.01170  0.64312  0.60709
EC3    EC   0.35688  0.36858  0.27376
EC4    EC   0.35688  0.98830  0.05957
EC5    EC   0.36858  0.01170  0.94043
EC6    EC   0.36858  0.35688  0.39291
EC7    EC   0.63142  0.64312  0.39291
EC8    EC   0.63142  0.98830  0.94043
EC9    EC   0.64312  0.01170  0.05957
EC10   EC   0.64312  0.63142  0.27376
EC11   EC   0.98830  0.35688  0.60709
EC12   EC   0.98830  0.63142  0.72624
E1    E   0.00000  0.00000  0.12442
E2    E   0.00000  0.00000  0.20891
E3    E   0.00000  0.00000  0.45776
E4    E   0.00000  0.00000  0.54224
E5    E   0.00000  0.00000  0.79109
E6    E   0.00000  0.00000  0.87558
E7    E   0.00000  0.09733  0.16666
E8    E   0.00000  0.09733  0.16667
E9    E   0.00000  0.36273  0.66666
E10   E   0.00000  0.36273  0.66667
E11   E   0.00000  0.50000  0.60709
E12   E   0.00000  0.50000  0.72624
E13   E   0.00000  0.63727  0.66666
E14   E   0.00000  0.63727  0.66667
E15   E   0.00000  0.90267  0.16666
E16   E   0.00000  0.90267  0.16667
E17   E   0.02642  0.26105  0.75867
E18   E   0.02642  0.76537  0.57466
E19   E   0.05619  0.11238  0.50000
E20   E   0.05619  0.11238  0.50000
E21   E   0.05619  0.94381  0.83333
E22   E   0.05619  0.94381  0.83334
E23   E   0.09733  0.00000  0.50000
E24   E   0.09733  0.00000  0.50000
E25   E   0.09733  0.09733  0.83333
E26   E   0.09733  0.09733  0.83334
E27   E   0.11238  0.05619  0.16666
E28   E   0.11238  0.05619  0.16667
E29   E   0.23463  0.26105  0.24133
E30   E   0.23463  0.97358  0.09200
E31   E   0.26105  0.02642  0.90800
E32   E   0.26105  0.23463  0.42534
E33   E   0.36273  0.00000  0.00000
E34   E   0.36273  0.00000  1.00000
E35   E   0.36273  0.36273  0.33333
E36   E   0.36273  0.36273  0.33334
E37   E   0.50000  0.00000  0.05957
E38   E   0.50000  0.00000  0.94043
E39   E   0.50000  0.50000  0.27376
E40   E   0.50000  0.50000  0.39291
E41   E   0.63727  0.00000  0.00000
E42   E   0.63727  0.00000  1.00000
E43   E   0.63727  0.63727  0.33333
E44   E   0.63727  0.63727  0.33334
E45   E   0.73895  0.76537  0.42534
E46   E   0.73895  0.97358  0.90800
E47   E   0.76537  0.02642  0.09200
E48   E   0.76537  0.73895  0.24133
E49   E   0.88762  0.94381  0.16666
E50   E   0.88762  0.94381  0.16667
E51   E   0.90267  0.00000  0.50000
E52   E   0.90267  0.00000  0.50000
E53   E   0.90267  0.90267  0.83333
E54   E   0.90267  0.90267  0.83334
E55   E   0.94381  0.05619  0.83333
E56   E   0.94381  0.05619  0.83334
E57   E   0.94381  0.88762  0.50000
E58   E   0.94381  0.88762  0.50000
E59   E   0.97358  0.23463  0.57466
E60   E   0.97358  0.73895  0.75867
loop_
