data_pyr-a_Pa-3  hall_number: 501, V_con: 5, EC_con: 3
_audit_creation_date              2025-03-06
_audit_creation_method            'MOFbuilder_1.0'
_symmetry_space_group_name_H-M    'P1'
_symmetry_Int_Tables_number       1
_symmetry_cell_setting            triclinic
loop_
_symmetry_equiv_pos_as_xyz
  x,y,z
_cell_length_a                    55.774100000000004
_cell_length_b                    55.774100000000004
_cell_length_c                    55.774100000000004
_cell_angle_alpha                 90.0
_cell_angle_beta                  90.0
_cell_angle_gamma                 90.0
loop_
_atom_site_label
_atom_site_type_symbol
_atom_site_fract_x
_atom_site_fract_y
_atom_site_fract_z
V1    V   0.03729  0.10676  0.55731
V2    V   0.03729  0.39324  0.05731
V3    V   0.05731  0.03729  0.39324
V4    V   0.05731  0.46271  0.89324
V5    V   0.10676  0.55731  0.03729
V6    V   0.10676  0.94269  0.53729
V7    V   0.39324  0.05731  0.03729
V8    V   0.39324  0.44269  0.53729
V9    V   0.44269  0.53729  0.39324
V10   V   0.44269  0.96271  0.89324
V11   V   0.46271  0.60676  0.55731
V12   V   0.46271  0.89324  0.05731
V13   V   0.53729  0.10676  0.94269
V14   V   0.53729  0.39324  0.44269
V15   V   0.55731  0.03729  0.10676
V16   V   0.55731  0.46271  0.60676
V17   V   0.60676  0.55731  0.46271
V18   V   0.60676  0.94269  0.96271
V19   V   0.89324  0.05731  0.46271
V20   V   0.89324  0.44269  0.96271
V21   V   0.94269  0.53729  0.10676
V22   V   0.94269  0.96271  0.60676
V23   V   0.96271  0.60676  0.94269
V24   V   0.96271  0.89324  0.44269
EC1    EC   0.11678  0.24694  0.12385
EC2    EC   0.11678  0.25306  0.62385
EC3    EC   0.12385  0.11678  0.24694
EC4    EC   0.12385  0.38322  0.74694
EC5    EC   0.24694  0.12385  0.11678
EC6    EC   0.24694  0.37615  0.61678
EC7    EC   0.25306  0.62385  0.11678
EC8    EC   0.25306  0.87615  0.61678
EC9    EC   0.37615  0.61678  0.24694
EC10   EC   0.37615  0.88322  0.74694
EC11   EC   0.38322  0.74694  0.12385
EC12   EC   0.38322  0.75306  0.62385
EC13   EC   0.61678  0.24694  0.37615
EC14   EC   0.61678  0.25306  0.87615
EC15   EC   0.62385  0.11678  0.25306
EC16   EC   0.62385  0.38322  0.75306
EC17   EC   0.74694  0.12385  0.38322
EC18   EC   0.74694  0.37615  0.88322
EC19   EC   0.75306  0.62385  0.38322
EC20   EC   0.75306  0.87615  0.88322
EC21   EC   0.87615  0.61678  0.25306
EC22   EC   0.87615  0.88322  0.75306
EC23   EC   0.88322  0.74694  0.37615
EC24   EC   0.88322  0.75306  0.87615
E1    E   0.01001  0.53474  0.91796
E2    E   0.01001  0.96526  0.41796
E3    E   0.02473  0.54730  0.07203
E4    E   0.02473  0.95270  0.57203
E5    E   0.03474  0.58204  0.98999
E6    E   0.03474  0.91796  0.48999
E7    E   0.04730  0.07203  0.47527
E8    E   0.04730  0.42797  0.97527
E9    E   0.07203  0.02473  0.54730
E10   E   0.07203  0.47527  0.04730
E11   E   0.07703  0.17991  0.59058
E12   E   0.07703  0.32009  0.09058
E13   E   0.08204  0.51001  0.96526
E14   E   0.08204  0.98999  0.46526
E15   E   0.09058  0.07703  0.32009
E16   E   0.09058  0.42297  0.82009
E17   E   0.12031  0.18186  0.18540
E18   E   0.12031  0.31814  0.68540
E19   E   0.17991  0.59058  0.07703
E20   E   0.17991  0.90942  0.57703
E21   E   0.18186  0.18540  0.12031
E22   E   0.18186  0.31460  0.62031
E23   E   0.18540  0.12031  0.18186
E24   E   0.18540  0.37969  0.68186
E25   E   0.31460  0.62031  0.18186
E26   E   0.31460  0.87969  0.68186
E27   E   0.31814  0.68540  0.12031
E28   E   0.31814  0.81460  0.62031
E29   E   0.32009  0.09058  0.07703
E30   E   0.32009  0.40942  0.57703
E31   E   0.37969  0.68186  0.18540
E32   E   0.37969  0.81814  0.68540
E33   E   0.40942  0.57703  0.32009
E34   E   0.40942  0.92297  0.82009
E35   E   0.41796  0.01001  0.96526
E36   E   0.41796  0.48999  0.46526
E37   E   0.42297  0.67991  0.59058
E38   E   0.42297  0.82009  0.09058
E39   E   0.42797  0.52473  0.54730
E40   E   0.42797  0.97527  0.04730
E41   E   0.45270  0.57203  0.47527
E42   E   0.45270  0.92797  0.97527
E43   E   0.46526  0.08204  0.98999
E44   E   0.46526  0.41796  0.48999
E45   E   0.47527  0.04730  0.07203
E46   E   0.47527  0.45270  0.57203
E47   E   0.48999  0.03474  0.91796
E48   E   0.48999  0.46526  0.41796
E49   E   0.51001  0.53474  0.58204
E50   E   0.51001  0.96526  0.08204
E51   E   0.52473  0.54730  0.42797
E52   E   0.52473  0.95270  0.92797
E53   E   0.53474  0.58204  0.51001
E54   E   0.53474  0.91796  0.01001
E55   E   0.54730  0.07203  0.02473
E56   E   0.54730  0.42797  0.52473
E57   E   0.57203  0.02473  0.95270
E58   E   0.57203  0.47527  0.45270
E59   E   0.57703  0.17991  0.90942
E60   E   0.57703  0.32009  0.40942
E61   E   0.58204  0.51001  0.53474
E62   E   0.58204  0.98999  0.03474
E63   E   0.59058  0.07703  0.17991
E64   E   0.59058  0.42297  0.67991
E65   E   0.62031  0.18186  0.31460
E66   E   0.62031  0.31814  0.81460
E67   E   0.67991  0.59058  0.42297
E68   E   0.67991  0.90942  0.92297
E69   E   0.68186  0.18540  0.37969
E70   E   0.68186  0.31460  0.87969
E71   E   0.68540  0.12031  0.31814
E72   E   0.68540  0.37969  0.81814
E73   E   0.81460  0.62031  0.31814
E74   E   0.81460  0.87969  0.81814
E75   E   0.81814  0.68540  0.37969
E76   E   0.81814  0.81460  0.87969
E77   E   0.82009  0.09058  0.42297
E78   E   0.82009  0.40942  0.92297
E79   E   0.87969  0.68186  0.31460
E80   E   0.87969  0.81814  0.81460
E81   E   0.90942  0.57703  0.17991
E82   E   0.90942  0.92297  0.67991
E83   E   0.91796  0.01001  0.53474
E84   E   0.91796  0.48999  0.03474
E85   E   0.92297  0.67991  0.90942
E86   E   0.92297  0.82009  0.40942
E87   E   0.92797  0.52473  0.95270
E88   E   0.92797  0.97527  0.45270
E89   E   0.95270  0.57203  0.02473
E90   E   0.95270  0.92797  0.52473
E91   E   0.96526  0.08204  0.51001
E92   E   0.96526  0.41796  0.01001
E93   E   0.97527  0.04730  0.42797
E94   E   0.97527  0.45270  0.92797
E95   E   0.98999  0.03474  0.58204
E96   E   0.98999  0.46526  0.08204
loop_
