data_pyr-e_Pa-3  hall_number: 501, V_con: 6
_audit_creation_date              2025-03-06
_audit_creation_method            'MOFbuilder_1.0'
_symmetry_space_group_name_H-M    'P1'
_symmetry_Int_Tables_number       1
_symmetry_cell_setting            triclinic
loop_
_symmetry_equiv_pos_as_xyz
  x,y,z
_cell_length_a                    31.204900000000002
_cell_length_b                    31.204900000000002
_cell_length_c                    31.204900000000002
_cell_angle_alpha                 90.0
_cell_angle_beta                  90.0
_cell_angle_gamma                 90.0
loop_
_atom_site_label
_atom_site_type_symbol
_atom_site_fract_x
_atom_site_fract_y
_atom_site_fract_z
V1    V   0.06527  0.19334  0.59852
V2    V   0.06527  0.30666  0.09852
V3    V   0.09852  0.06527  0.30666
V4    V   0.09852  0.43473  0.80666
V5    V   0.19334  0.59852  0.06527
V6    V   0.19334  0.90148  0.56527
V7    V   0.30666  0.09852  0.06527
V8    V   0.30666  0.40148  0.56527
V9    V   0.40148  0.56527  0.30666
V10   V   0.40148  0.93473  0.80666
V11   V   0.43473  0.69334  0.59852
V12   V   0.43473  0.80666  0.09852
V13   V   0.56527  0.19334  0.90148
V14   V   0.56527  0.30666  0.40148
V15   V   0.59852  0.06527  0.19334
V16   V   0.59852  0.43473  0.69334
V17   V   0.69334  0.59852  0.43473
V18   V   0.69334  0.90148  0.93473
V19   V   0.80666  0.09852  0.43473
V20   V   0.80666  0.40148  0.93473
V21   V   0.90148  0.56527  0.19334
V22   V   0.90148  0.93473  0.69334
V23   V   0.93473  0.69334  0.90148
V24   V   0.93473  0.80666  0.40148
E1    E   0.01663  0.56404  0.85407
E2    E   0.01663  0.93596  0.35407
E3    E   0.04741  0.58189  0.12930
E4    E   0.04741  0.91811  0.62930
E5    E   0.06404  0.64593  0.98337
E6    E   0.06404  0.85407  0.48337
E7    E   0.08189  0.12930  0.45259
E8    E   0.08189  0.18596  0.20259
E9    E   0.08189  0.31404  0.70259
E10   E   0.08189  0.37070  0.95259
E11   E   0.12930  0.04741  0.58189
E12   E   0.12930  0.45259  0.08189
E13   E   0.14593  0.51663  0.93596
E14   E   0.14593  0.98337  0.43596
E15   E   0.18596  0.20259  0.08189
E16   E   0.18596  0.29741  0.58189
E17   E   0.20259  0.08189  0.18596
E18   E   0.20259  0.41811  0.68596
E19   E   0.29741  0.58189  0.18596
E20   E   0.29741  0.91811  0.68596
E21   E   0.31404  0.70259  0.08189
E22   E   0.31404  0.79741  0.58189
E23   E   0.35407  0.01663  0.93596
E24   E   0.35407  0.48337  0.43596
E25   E   0.37070  0.54741  0.58189
E26   E   0.37070  0.95259  0.08189
E27   E   0.41811  0.62930  0.45259
E28   E   0.41811  0.68596  0.20259
E29   E   0.41811  0.81404  0.70259
E30   E   0.41811  0.87070  0.95259
E31   E   0.43596  0.14593  0.98337
E32   E   0.43596  0.35407  0.48337
E33   E   0.45259  0.08189  0.12930
E34   E   0.45259  0.41811  0.62930
E35   E   0.48337  0.06404  0.85407
E36   E   0.48337  0.43596  0.35407
E37   E   0.51663  0.56404  0.64593
E38   E   0.51663  0.93596  0.14593
E39   E   0.54741  0.58189  0.37070
E40   E   0.54741  0.91811  0.87070
E41   E   0.56404  0.64593  0.51663
E42   E   0.56404  0.85407  0.01663
E43   E   0.58189  0.12930  0.04741
E44   E   0.58189  0.18596  0.29741
E45   E   0.58189  0.31404  0.79741
E46   E   0.58189  0.37070  0.54741
E47   E   0.62930  0.04741  0.91811
E48   E   0.62930  0.45259  0.41811
E49   E   0.64593  0.51663  0.56404
E50   E   0.64593  0.98337  0.06404
E51   E   0.68596  0.20259  0.41811
E52   E   0.68596  0.29741  0.91811
E53   E   0.70259  0.08189  0.31404
E54   E   0.70259  0.41811  0.81404
E55   E   0.79741  0.58189  0.31404
E56   E   0.79741  0.91811  0.81404
E57   E   0.81404  0.70259  0.41811
E58   E   0.81404  0.79741  0.91811
E59   E   0.85407  0.01663  0.56404
E60   E   0.85407  0.48337  0.06404
E61   E   0.87070  0.54741  0.91811
E62   E   0.87070  0.95259  0.41811
E63   E   0.91811  0.62930  0.04741
E64   E   0.91811  0.68596  0.29741
E65   E   0.91811  0.81404  0.79741
E66   E   0.91811  0.87070  0.54741
E67   E   0.93596  0.14593  0.51663
E68   E   0.93596  0.35407  0.01663
E69   E   0.95259  0.08189  0.37070
E70   E   0.95259  0.41811  0.87070
E71   E   0.98337  0.06404  0.64593
E72   E   0.98337  0.43596  0.14593
loop_
