data_qms_Pm-3n  hall_number: 520, V_con: 4, EC_con: 4
_audit_creation_date              2025-03-06
_audit_creation_method            'MOFbuilder_1.0'
_symmetry_space_group_name_H-M    'P1'
_symmetry_Int_Tables_number       1
_symmetry_cell_setting            triclinic
loop_
_symmetry_equiv_pos_as_xyz
  x,y,z
_cell_length_a                    35.245400000000004
_cell_length_b                    35.245400000000004
_cell_length_c                    35.245400000000004
_cell_angle_alpha                 90.0
_cell_angle_beta                  90.0
_cell_angle_gamma                 90.0
loop_
_atom_site_label
_atom_site_type_symbol
_atom_site_fract_x
_atom_site_fract_y
_atom_site_fract_z
V1    V   0.13417  0.25000  0.36583
V2    V   0.13417  0.25000  0.63417
V3    V   0.13417  0.75000  0.36583
V4    V   0.13417  0.75000  0.63417
V5    V   0.25000  0.36583  0.13417
V6    V   0.25000  0.36583  0.86583
V7    V   0.25000  0.63417  0.13417
V8    V   0.25000  0.63417  0.86583
V9    V   0.36583  0.13417  0.25000
V10   V   0.36583  0.13417  0.75000
V11   V   0.36583  0.86583  0.25000
V12   V   0.36583  0.86583  0.75000
V13   V   0.63417  0.13417  0.25000
V14   V   0.63417  0.13417  0.75000
V15   V   0.63417  0.86583  0.25000
V16   V   0.63417  0.86583  0.75000
V17   V   0.75000  0.36583  0.13417
V18   V   0.75000  0.36583  0.86583
V19   V   0.75000  0.63417  0.13417
V20   V   0.75000  0.63417  0.86583
V21   V   0.86583  0.25000  0.36583
V22   V   0.86583  0.25000  0.63417
V23   V   0.86583  0.75000  0.36583
V24   V   0.86583  0.75000  0.63417
EC1    EC   0.00000  0.00000  0.36592
EC2    EC   0.00000  0.00000  0.63408
EC3    EC   0.00000  0.36592  0.00000
EC4    EC   0.00000  0.63408  0.00000
EC5    EC   0.13408  0.50000  0.50000
EC6    EC   0.36592  0.00000  0.00000
EC7    EC   0.50000  0.13408  0.50000
EC8    EC   0.50000  0.50000  0.13408
EC9    EC   0.50000  0.50000  0.86592
EC10   EC   0.50000  0.86592  0.50000
EC11   EC   0.63408  0.00000  0.00000
EC12   EC   0.86592  0.50000  0.50000
E1    E   0.06709  0.12500  0.36587
E2    E   0.06709  0.12500  0.63413
E3    E   0.06709  0.87500  0.36587
E4    E   0.06709  0.87500  0.63413
E5    E   0.12500  0.36587  0.06709
E6    E   0.12500  0.36587  0.93291
E7    E   0.12500  0.63413  0.06709
E8    E   0.12500  0.63413  0.93291
E9    E   0.13413  0.37500  0.43291
E10   E   0.13413  0.37500  0.56709
E11   E   0.13413  0.62500  0.43291
E12   E   0.13413  0.62500  0.56709
E13   E   0.19209  0.30791  0.25000
E14   E   0.19209  0.30791  0.75000
E15   E   0.19209  0.69209  0.25000
E16   E   0.19209  0.69209  0.75000
E17   E   0.19209  0.30791  0.25000
E18   E   0.19209  0.30791  0.75000
E19   E   0.19209  0.69209  0.25000
E20   E   0.19209  0.69209  0.75000
E21   E   0.25000  0.19209  0.30791
E22   E   0.25000  0.19209  0.69209
E23   E   0.25000  0.19209  0.30791
E24   E   0.25000  0.19209  0.69209
E25   E   0.25000  0.80791  0.30791
E26   E   0.25000  0.80791  0.69209
E27   E   0.30791  0.25000  0.19209
E28   E   0.30791  0.25000  0.19209
E29   E   0.30791  0.25000  0.80791
E30   E   0.30791  0.75000  0.19209
E31   E   0.30791  0.75000  0.19209
E32   E   0.30791  0.75000  0.80791
E33   E   0.36587  0.06709  0.12500
E34   E   0.36587  0.06709  0.87500
E35   E   0.36587  0.93291  0.12500
E36   E   0.36587  0.93291  0.87500
E37   E   0.37500  0.43291  0.13413
E38   E   0.37500  0.43291  0.86587
E39   E   0.37500  0.56709  0.13413
E40   E   0.37500  0.56709  0.86587
E41   E   0.43291  0.13413  0.37500
E42   E   0.43291  0.13413  0.62500
E43   E   0.43291  0.86587  0.37500
E44   E   0.43291  0.86587  0.62500
E45   E   0.56709  0.13413  0.37500
E46   E   0.56709  0.13413  0.62500
E47   E   0.56709  0.86587  0.37500
E48   E   0.56709  0.86587  0.62500
E49   E   0.62500  0.43291  0.13413
E50   E   0.62500  0.43291  0.86587
E51   E   0.62500  0.56709  0.13413
E52   E   0.62500  0.56709  0.86587
E53   E   0.63413  0.06709  0.12500
E54   E   0.63413  0.06709  0.87500
E55   E   0.63413  0.93291  0.12500
E56   E   0.63413  0.93291  0.87500
E57   E   0.69209  0.25000  0.19209
E58   E   0.69209  0.25000  0.19209
E59   E   0.69209  0.25000  0.80791
E60   E   0.69209  0.75000  0.19209
E61   E   0.69209  0.75000  0.19209
E62   E   0.69209  0.75000  0.80791
E63   E   0.75000  0.19209  0.30791
E64   E   0.75000  0.19209  0.69209
E65   E   0.75000  0.19209  0.30791
E66   E   0.75000  0.19209  0.69209
E67   E   0.75000  0.80791  0.30791
E68   E   0.75000  0.80791  0.69209
E69   E   0.80791  0.30791  0.25000
E70   E   0.80791  0.30791  0.75000
E71   E   0.80791  0.69209  0.25000
E72   E   0.80791  0.69209  0.75000
E73   E   0.86587  0.37500  0.43291
E74   E   0.86587  0.37500  0.56709
E75   E   0.86587  0.62500  0.43291
E76   E   0.86587  0.62500  0.56709
E77   E   0.87500  0.36587  0.06709
E78   E   0.87500  0.36587  0.93291
E79   E   0.87500  0.63413  0.06709
E80   E   0.87500  0.63413  0.93291
E81   E   0.93291  0.12500  0.36587
E82   E   0.93291  0.12500  0.63413
E83   E   0.93291  0.87500  0.36587
E84   E   0.93291  0.87500  0.63413
loop_
