data_qtz-h_P6222  hall_number: 474, V_con: 3
_audit_creation_date              2025-03-06
_audit_creation_method            'MOFbuilder_1.0'
_symmetry_space_group_name_H-M    'P1'
_symmetry_Int_Tables_number       1
_symmetry_cell_setting            triclinic
loop_
_symmetry_equiv_pos_as_xyz
  x,y,z
_cell_length_a                    36.6079
_cell_length_b                    36.6079
_cell_length_c                    44.2305
_cell_angle_alpha                 90.0
_cell_angle_beta                  90.0
_cell_angle_gamma                 120.0
loop_
_atom_site_label
_atom_site_type_symbol
_atom_site_fract_x
_atom_site_fract_y
_atom_site_fract_z
V1    V   0.14951  0.53129  0.55950
V2    V   0.14951  0.61822  0.77384
V3    V   0.38178  0.53129  0.44050
V4    V   0.38178  0.85049  0.89283
V5    V   0.46871  0.61822  0.22616
V6    V   0.46871  0.85049  0.10717
V7    V   0.53129  0.14951  0.10717
V8    V   0.53129  0.38178  0.22616
V9    V   0.61822  0.14951  0.89283
V10   V   0.61822  0.46871  0.44050
V11   V   0.85049  0.38178  0.77384
V12   V   0.85049  0.46871  0.55950
E1    E   0.00000  0.50000  0.55950
E2    E   0.00000  0.50000  0.77384
E3    E   0.14951  0.57475  0.66667
E4    E   0.14951  0.57476  0.66667
E5    E   0.26564  0.53129  0.50000
E6    E   0.26564  0.73435  0.83333
E7    E   0.26565  0.53129  0.50000
E8    E   0.26565  0.73436  0.83334
E9    E   0.42524  0.57475  0.33333
E10   E   0.42524  0.85049  0.00000
E11   E   0.42525  0.57476  0.33333
E12   E   0.42525  0.85049  0.00000
E13   E   0.46871  0.73435  0.16667
E14   E   0.46871  0.73436  0.16666
E15   E   0.50000  0.00000  0.10717
E16   E   0.50000  0.00000  0.89283
E17   E   0.50000  0.50000  0.22616
E18   E   0.50000  0.50000  0.44050
E19   E   0.53129  0.26564  0.16666
E20   E   0.53129  0.26565  0.16667
E21   E   0.57475  0.14951  0.00000
E22   E   0.57475  0.42524  0.33333
E23   E   0.57476  0.14951  0.00000
E24   E   0.57476  0.42525  0.33333
E25   E   0.73435  0.26564  0.83334
E26   E   0.73435  0.46871  0.50000
E27   E   0.73436  0.26565  0.83333
E28   E   0.73436  0.46871  0.50000
E29   E   0.85049  0.42524  0.66667
E30   E   0.85049  0.42525  0.66667
loop_
