data_qtz-g_P6222  hall_number: 474, V_con: 3
_audit_creation_date              2025-03-06
_audit_creation_method            'MOFbuilder_1.0'
_symmetry_space_group_name_H-M    'P1'
_symmetry_Int_Tables_number       1
_symmetry_cell_setting            triclinic
loop_
_symmetry_equiv_pos_as_xyz
  x,y,z
_cell_length_a                    35.124300000000005
_cell_length_b                    35.124300000000005
_cell_length_c                    40.4333
_cell_angle_alpha                 90.0
_cell_angle_beta                  90.0
_cell_angle_gamma                 120.0
loop_
_atom_site_label
_atom_site_type_symbol
_atom_site_fract_x
_atom_site_fract_y
_atom_site_fract_z
V1    V   0.09801  0.43473  0.06739
V2    V   0.09801  0.66328  0.26594
V3    V   0.33672  0.43473  0.93261
V4    V   0.33672  0.90199  0.40072
V5    V   0.43473  0.09801  0.59928
V6    V   0.43473  0.33672  0.73406
V7    V   0.56527  0.66328  0.73406
V8    V   0.56527  0.90199  0.59928
V9    V   0.66328  0.09801  0.40072
V10   V   0.66328  0.56527  0.93261
V11   V   0.90199  0.33672  0.26594
V12   V   0.90199  0.56527  0.06739
E1    E   0.00000  0.38572  0.16666
E2    E   0.00000  0.38572  0.16667
E3    E   0.00000  0.50000  0.06739
E4    E   0.00000  0.50000  0.26594
E5    E   0.00000  0.61428  0.16666
E6    E   0.00000  0.61428  0.16667
E7    E   0.21736  0.43473  0.00000
E8    E   0.21736  0.78263  0.33333
E9    E   0.21737  0.43473  0.00000
E10   E   0.21737  0.78264  0.33333
E11   E   0.38572  0.00000  0.50000
E12   E   0.38572  0.00000  0.50000
E13   E   0.38572  0.38572  0.83333
E14   E   0.38572  0.38572  0.83334
E15   E   0.43473  0.21736  0.66667
E16   E   0.43473  0.21737  0.66667
E17   E   0.50000  0.00000  0.40072
E18   E   0.50000  0.00000  0.59928
E19   E   0.50000  0.50000  0.73406
E20   E   0.50000  0.50000  0.93261
E21   E   0.56527  0.78263  0.66667
E22   E   0.56527  0.78264  0.66667
E23   E   0.61428  0.00000  0.50000
E24   E   0.61428  0.00000  0.50000
E25   E   0.61428  0.61428  0.83333
E26   E   0.61428  0.61428  0.83334
E27   E   0.78263  0.21736  0.33333
E28   E   0.78263  0.56527  0.00000
E29   E   0.78264  0.21737  0.33333
E30   E   0.78264  0.56527  0.00000
loop_
