data_qtz-f_P6222  hall_number: 474, V_con: 3
_audit_creation_date              2025-03-06
_audit_creation_method            'MOFbuilder_1.0'
_symmetry_space_group_name_H-M    'P1'
_symmetry_Int_Tables_number       1
_symmetry_cell_setting            triclinic
loop_
_symmetry_equiv_pos_as_xyz
  x,y,z
_cell_length_a                    38.6742
_cell_length_b                    38.6742
_cell_length_c                    34.8531
_cell_angle_alpha                 90.0
_cell_angle_beta                  90.0
_cell_angle_gamma                 120.0
loop_
_atom_site_label
_atom_site_type_symbol
_atom_site_fract_x
_atom_site_fract_y
_atom_site_fract_z
V1    V   0.12728  0.45341  0.09170
V2    V   0.12728  0.67387  0.24163
V3    V   0.32613  0.45341  0.90830
V4    V   0.32613  0.87272  0.42503
V5    V   0.45341  0.12728  0.57497
V6    V   0.45341  0.32613  0.75837
V7    V   0.54659  0.67387  0.75837
V8    V   0.54659  0.87272  0.57497
V9    V   0.67387  0.12728  0.42503
V10   V   0.67387  0.54659  0.90830
V11   V   0.87272  0.32613  0.24163
V12   V   0.87272  0.54659  0.09170
E1    E   0.00000  0.38977  0.16666
E2    E   0.00000  0.38977  0.16667
E3    E   0.00000  0.61023  0.16666
E4    E   0.00000  0.61023  0.16667
E5    E   0.12728  0.56364  0.16666
E6    E   0.12728  0.56364  0.16667
E7    E   0.22670  0.45341  0.00000
E8    E   0.22670  0.77329  0.33333
E9    E   0.22671  0.45341  0.00000
E10   E   0.22671  0.77330  0.33333
E11   E   0.38977  0.00000  0.50000
E12   E   0.38977  0.00000  0.50000
E13   E   0.38977  0.38977  0.83333
E14   E   0.38977  0.38977  0.83334
E15   E   0.43636  0.56364  0.83334
E16   E   0.43636  0.87272  0.50000
E17   E   0.43636  0.56364  0.83333
E18   E   0.43636  0.87272  0.50000
E19   E   0.45341  0.22670  0.66667
E20   E   0.45341  0.22671  0.66667
E21   E   0.54659  0.77329  0.66667
E22   E   0.54659  0.77330  0.66667
E23   E   0.56364  0.12728  0.50000
E24   E   0.56364  0.43636  0.83333
E25   E   0.56364  0.12728  0.50000
E26   E   0.56364  0.43636  0.83334
E27   E   0.61023  0.00000  0.50000
E28   E   0.61023  0.00000  0.50000
E29   E   0.61023  0.61023  0.83333
E30   E   0.61023  0.61023  0.83334
E31   E   0.77329  0.22670  0.33333
E32   E   0.77329  0.54659  0.00000
E33   E   0.77330  0.22671  0.33333
E34   E   0.77330  0.54659  0.00000
E35   E   0.87272  0.43636  0.16667
E36   E   0.87272  0.43636  0.16666
loop_
