data_qzd-a_P6222  hall_number: 474, V_con: 3, EC_con: 3
_audit_creation_date              2025-03-06
_audit_creation_method            'MOFbuilder_1.0'
_symmetry_space_group_name_H-M    'P1'
_symmetry_Int_Tables_number       1
_symmetry_cell_setting            triclinic
loop_
_symmetry_equiv_pos_as_xyz
  x,y,z
_cell_length_a                    26.840700000000002
_cell_length_b                    26.840700000000002
_cell_length_c                    62.365399999999994
_cell_angle_alpha                 90.0
_cell_angle_beta                  90.0
_cell_angle_gamma                 120.0
loop_
_atom_site_label
_atom_site_type_symbol
_atom_site_fract_x
_atom_site_fract_y
_atom_site_fract_z
V1    V   0.00000  0.00000  0.08017
V2    V   0.00000  0.00000  0.25316
V3    V   0.00000  0.00000  0.41350
V4    V   0.00000  0.00000  0.58650
V5    V   0.00000  0.00000  0.74684
V6    V   0.00000  0.00000  0.91983
EC1    EC   0.00000  0.31371  0.16666
EC2    EC   0.00000  0.31371  0.16667
EC3    EC   0.00000  0.68629  0.16666
EC4    EC   0.00000  0.68629  0.16667
EC5    EC   0.31371  0.00000  0.50000
EC6    EC   0.31371  0.00000  0.50000
EC7    EC   0.31371  0.31371  0.83333
EC8    EC   0.31371  0.31371  0.83334
EC9    EC   0.68629  0.00000  0.50000
EC10   EC   0.68629  0.00000  0.50000
EC11   EC   0.68629  0.68629  0.83333
EC12   EC   0.68629  0.68629  0.83334
E1    E   0.00000  0.00000  0.00000
E2    E   0.00000  0.00000  0.33333
E3    E   0.00000  0.00000  0.66667
E4    E   0.00000  0.15686  0.12342
E5    E   0.00000  0.15686  0.20991
E6    E   0.00000  0.50000  0.16666
E7    E   0.00000  0.50000  0.16667
E8    E   0.00000  0.84314  0.12342
E9    E   0.00000  0.84314  0.20991
E10   E   0.15686  0.00000  0.45675
E11   E   0.15686  0.00000  0.54325
E12   E   0.15686  0.15686  0.79009
E13   E   0.15686  0.15686  0.87658
E14   E   0.50000  0.00000  0.50000
E15   E   0.50000  0.00000  0.50000
E16   E   0.50000  0.50000  0.83333
E17   E   0.50000  0.50000  0.83334
E18   E   0.84314  0.00000  0.45675
E19   E   0.84314  0.00000  0.54325
E20   E   0.84314  0.84314  0.79009
E21   E   0.84314  0.84314  0.87658
loop_
