data_rho-e_Im-3m  hall_number: 529, V_con: 6, EC_con: 6
_audit_creation_date              2025-03-06
_audit_creation_method            'MOFbuilder_1.0'
_symmetry_space_group_name_H-M    'P1'
_symmetry_Int_Tables_number       1
_symmetry_cell_setting            triclinic
loop_
_symmetry_equiv_pos_as_xyz
  x,y,z
_cell_length_a                    56.955099999999995
_cell_length_b                    56.955099999999995
_cell_length_c                    56.955099999999995
_cell_angle_alpha                 90.0
_cell_angle_beta                  90.0
_cell_angle_gamma                 90.0
loop_
_atom_site_label
_atom_site_type_symbol
_atom_site_fract_x
_atom_site_fract_y
_atom_site_fract_z
V1    V   0.12133  0.33108  0.33108
V2    V   0.12133  0.33108  0.66892
V3    V   0.12133  0.66892  0.33108
V4    V   0.12133  0.66892  0.66892
V5    V   0.16892  0.16892  0.37867
V6    V   0.16892  0.16892  0.62133
V7    V   0.16892  0.37867  0.16892
V8    V   0.16892  0.37867  0.83108
V9    V   0.16892  0.62133  0.16892
V10   V   0.16892  0.62133  0.83108
V11   V   0.16892  0.83108  0.37867
V12   V   0.16892  0.83108  0.62133
V13   V   0.33108  0.12133  0.33108
V14   V   0.33108  0.12133  0.66892
V15   V   0.33108  0.33108  0.12133
V16   V   0.33108  0.33108  0.87867
V17   V   0.33108  0.66892  0.12133
V18   V   0.33108  0.66892  0.87867
V19   V   0.33108  0.87867  0.33108
V20   V   0.33108  0.87867  0.66892
V21   V   0.37867  0.16892  0.16892
V22   V   0.37867  0.16892  0.83108
V23   V   0.37867  0.83108  0.16892
V24   V   0.37867  0.83108  0.83108
V25   V   0.62133  0.16892  0.16892
V26   V   0.62133  0.16892  0.83108
V27   V   0.62133  0.83108  0.16892
V28   V   0.62133  0.83108  0.83108
V29   V   0.66892  0.12133  0.33108
V30   V   0.66892  0.12133  0.66892
V31   V   0.66892  0.33108  0.12133
V32   V   0.66892  0.33108  0.87867
V33   V   0.66892  0.66892  0.12133
V34   V   0.66892  0.66892  0.87867
V35   V   0.66892  0.87867  0.33108
V36   V   0.66892  0.87867  0.66892
V37   V   0.83108  0.16892  0.37867
V38   V   0.83108  0.16892  0.62133
V39   V   0.83108  0.37867  0.16892
V40   V   0.83108  0.37867  0.83108
V41   V   0.83108  0.62133  0.16892
V42   V   0.83108  0.62133  0.83108
V43   V   0.83108  0.83108  0.37867
V44   V   0.83108  0.83108  0.62133
V45   V   0.87867  0.33108  0.33108
V46   V   0.87867  0.33108  0.66892
V47   V   0.87867  0.66892  0.33108
V48   V   0.87867  0.66892  0.66892
EC1    EC   0.00000  0.21635  0.38533
EC2    EC   0.00000  0.21635  0.61467
EC3    EC   0.00000  0.38533  0.21635
EC4    EC   0.00000  0.38533  0.78365
EC5    EC   0.00000  0.61467  0.21635
EC6    EC   0.00000  0.61467  0.78365
EC7    EC   0.00000  0.78365  0.38533
EC8    EC   0.00000  0.78365  0.61467
EC9    EC   0.11467  0.28365  0.50000
EC10   EC   0.11467  0.50000  0.28365
EC11   EC   0.11467  0.50000  0.71635
EC12   EC   0.11467  0.71635  0.50000
EC13   EC   0.21635  0.00000  0.38533
EC14   EC   0.21635  0.00000  0.61467
EC15   EC   0.21635  0.38533  0.00000
EC16   EC   0.21635  0.61467  0.00000
EC17   EC   0.28365  0.11467  0.50000
EC18   EC   0.28365  0.50000  0.11467
EC19   EC   0.28365  0.50000  0.88533
EC20   EC   0.28365  0.88533  0.50000
EC21   EC   0.38533  0.00000  0.21635
EC22   EC   0.38533  0.00000  0.78365
EC23   EC   0.38533  0.21635  0.00000
EC24   EC   0.38533  0.78365  0.00000
EC25   EC   0.50000  0.11467  0.28365
EC26   EC   0.50000  0.11467  0.71635
EC27   EC   0.50000  0.28365  0.11467
EC28   EC   0.50000  0.28365  0.88533
EC29   EC   0.50000  0.71635  0.11467
EC30   EC   0.50000  0.71635  0.88533
EC31   EC   0.50000  0.88533  0.28365
EC32   EC   0.50000  0.88533  0.71635
EC33   EC   0.61467  0.00000  0.21635
EC34   EC   0.61467  0.00000  0.78365
EC35   EC   0.61467  0.21635  0.00000
EC36   EC   0.61467  0.78365  0.00000
EC37   EC   0.71635  0.11467  0.50000
EC38   EC   0.71635  0.50000  0.11467
EC39   EC   0.71635  0.50000  0.88533
EC40   EC   0.71635  0.88533  0.50000
EC41   EC   0.78365  0.00000  0.38533
EC42   EC   0.78365  0.00000  0.61467
EC43   EC   0.78365  0.38533  0.00000
EC44   EC   0.78365  0.61467  0.00000
EC45   EC   0.88533  0.28365  0.50000
EC46   EC   0.88533  0.50000  0.28365
EC47   EC   0.88533  0.50000  0.71635
EC48   EC   0.88533  0.71635  0.50000
E1    E   0.05733  0.25000  0.44267
E2    E   0.05733  0.25000  0.55733
E3    E   0.05733  0.44267  0.25000
E4    E   0.05733  0.44267  0.75000
E5    E   0.05733  0.55733  0.25000
E6    E   0.05733  0.55733  0.75000
E7    E   0.05733  0.75000  0.44267
E8    E   0.05733  0.75000  0.55733
E9    E   0.05733  0.25000  0.44267
E10   E   0.05733  0.25000  0.55733
E11   E   0.05733  0.44267  0.25000
E12   E   0.05733  0.44267  0.75000
E13   E   0.05733  0.55733  0.25000
E14   E   0.05733  0.55733  0.75000
E15   E   0.05733  0.75000  0.44267
E16   E   0.05733  0.75000  0.55733
E17   E   0.06066  0.27371  0.35821
E18   E   0.06066  0.27371  0.64179
E19   E   0.06066  0.35821  0.27371
E20   E   0.06066  0.35821  0.72629
E21   E   0.06066  0.64179  0.27371
E22   E   0.06066  0.64179  0.72629
E23   E   0.06066  0.72629  0.35821
E24   E   0.06066  0.72629  0.64179
E25   E   0.08446  0.19263  0.38200
E26   E   0.08446  0.19263  0.61800
E27   E   0.08446  0.38200  0.19263
E28   E   0.08446  0.38200  0.80737
E29   E   0.08446  0.61800  0.19263
E30   E   0.08446  0.61800  0.80737
E31   E   0.08446  0.80737  0.38200
E32   E   0.08446  0.80737  0.61800
E33   E   0.11800  0.30737  0.41554
E34   E   0.11800  0.30737  0.58446
E35   E   0.11800  0.41554  0.30737
E36   E   0.11800  0.41554  0.69263
E37   E   0.11800  0.58446  0.30737
E38   E   0.11800  0.58446  0.69263
E39   E   0.11800  0.69263  0.41554
E40   E   0.11800  0.69263  0.58446
E41   E   0.14179  0.22629  0.43934
E42   E   0.14179  0.22629  0.56066
E43   E   0.14179  0.43934  0.22629
E44   E   0.14179  0.43934  0.77371
E45   E   0.14179  0.56066  0.22629
E46   E   0.14179  0.56066  0.77371
E47   E   0.14179  0.77371  0.43934
E48   E   0.14179  0.77371  0.56066
E49   E   0.14512  0.25000  0.35488
E50   E   0.14512  0.25000  0.64512
E51   E   0.14512  0.35488  0.25000
E52   E   0.14512  0.35488  0.75000
E53   E   0.14512  0.64512  0.25000
E54   E   0.14512  0.64512  0.75000
E55   E   0.14512  0.75000  0.35488
E56   E   0.14512  0.75000  0.64512
E57   E   0.14512  0.25000  0.35488
E58   E   0.14512  0.25000  0.64512
E59   E   0.14512  0.35488  0.25000
E60   E   0.14512  0.35488  0.75000
E61   E   0.14512  0.64512  0.25000
E62   E   0.14512  0.64512  0.75000
E63   E   0.14512  0.75000  0.35488
E64   E   0.14512  0.75000  0.64512
E65   E   0.19263  0.08446  0.38200
E66   E   0.19263  0.08446  0.61800
E67   E   0.19263  0.38200  0.08446
E68   E   0.19263  0.38200  0.91554
E69   E   0.19263  0.61800  0.08446
E70   E   0.19263  0.61800  0.91554
E71   E   0.19263  0.91554  0.38200
E72   E   0.19263  0.91554  0.61800
E73   E   0.22629  0.14179  0.43934
E74   E   0.22629  0.14179  0.56066
E75   E   0.22629  0.43934  0.14179
E76   E   0.22629  0.43934  0.85821
E77   E   0.22629  0.56066  0.14179
E78   E   0.22629  0.56066  0.85821
E79   E   0.22629  0.85821  0.43934
E80   E   0.22629  0.85821  0.56066
E81   E   0.25000  0.05733  0.44267
E82   E   0.25000  0.05733  0.55733
E83   E   0.25000  0.05733  0.44267
E84   E   0.25000  0.05733  0.55733
E85   E   0.25000  0.14512  0.35488
E86   E   0.25000  0.14512  0.64512
E87   E   0.25000  0.14512  0.35488
E88   E   0.25000  0.14512  0.64512
E89   E   0.25000  0.35488  0.14512
E90   E   0.25000  0.35488  0.14512
E91   E   0.25000  0.35488  0.85488
E92   E   0.25000  0.44267  0.05733
E93   E   0.25000  0.44267  0.05733
E94   E   0.25000  0.44267  0.94267
E95   E   0.25000  0.55733  0.05733
E96   E   0.25000  0.55733  0.05733
E97   E   0.25000  0.55733  0.94267
E98   E   0.25000  0.64512  0.14512
E99   E   0.25000  0.64512  0.14512
E100  E   0.25000  0.64512  0.85488
E101  E   0.25000  0.85488  0.35488
E102  E   0.25000  0.85488  0.64512
E103  E   0.25000  0.94267  0.44267
E104  E   0.25000  0.94267  0.55733
E105  E   0.27371  0.06066  0.35821
E106  E   0.27371  0.06066  0.64179
E107  E   0.27371  0.35821  0.06066
E108  E   0.27371  0.35821  0.93934
E109  E   0.27371  0.64179  0.06066
E110  E   0.27371  0.64179  0.93934
E111  E   0.27371  0.93934  0.35821
E112  E   0.27371  0.93934  0.64179
E113  E   0.30737  0.11800  0.41554
E114  E   0.30737  0.11800  0.58446
E115  E   0.30737  0.41554  0.11800
E116  E   0.30737  0.41554  0.88200
E117  E   0.30737  0.58446  0.11800
E118  E   0.30737  0.58446  0.88200
E119  E   0.30737  0.88200  0.41554
E120  E   0.30737  0.88200  0.58446
E121  E   0.35488  0.14512  0.25000
E122  E   0.35488  0.14512  0.75000
E123  E   0.35488  0.14512  0.25000
E124  E   0.35488  0.14512  0.75000
E125  E   0.35488  0.25000  0.14512
E126  E   0.35488  0.25000  0.14512
E127  E   0.35488  0.25000  0.85488
E128  E   0.35488  0.75000  0.14512
E129  E   0.35488  0.75000  0.14512
E130  E   0.35488  0.75000  0.85488
E131  E   0.35488  0.85488  0.25000
E132  E   0.35488  0.85488  0.75000
E133  E   0.35821  0.06066  0.27371
E134  E   0.35821  0.06066  0.72629
E135  E   0.35821  0.27371  0.06066
E136  E   0.35821  0.27371  0.93934
E137  E   0.35821  0.72629  0.06066
E138  E   0.35821  0.72629  0.93934
E139  E   0.35821  0.93934  0.27371
E140  E   0.35821  0.93934  0.72629
E141  E   0.38200  0.08446  0.19263
E142  E   0.38200  0.08446  0.80737
E143  E   0.38200  0.19263  0.08446
E144  E   0.38200  0.19263  0.91554
E145  E   0.38200  0.80737  0.08446
E146  E   0.38200  0.80737  0.91554
E147  E   0.38200  0.91554  0.19263
E148  E   0.38200  0.91554  0.80737
E149  E   0.41554  0.11800  0.30737
E150  E   0.41554  0.11800  0.69263
E151  E   0.41554  0.30737  0.11800
E152  E   0.41554  0.30737  0.88200
E153  E   0.41554  0.69263  0.11800
E154  E   0.41554  0.69263  0.88200
E155  E   0.41554  0.88200  0.30737
E156  E   0.41554  0.88200  0.69263
E157  E   0.43934  0.14179  0.22629
E158  E   0.43934  0.14179  0.77371
E159  E   0.43934  0.22629  0.14179
E160  E   0.43934  0.22629  0.85821
E161  E   0.43934  0.77371  0.14179
E162  E   0.43934  0.77371  0.85821
E163  E   0.43934  0.85821  0.22629
E164  E   0.43934  0.85821  0.77371
E165  E   0.44267  0.05733  0.25000
E166  E   0.44267  0.05733  0.75000
E167  E   0.44267  0.05733  0.25000
E168  E   0.44267  0.05733  0.75000
E169  E   0.44267  0.25000  0.05733
E170  E   0.44267  0.25000  0.05733
E171  E   0.44267  0.25000  0.94267
E172  E   0.44267  0.75000  0.05733
E173  E   0.44267  0.75000  0.05733
E174  E   0.44267  0.75000  0.94267
E175  E   0.44267  0.94267  0.25000
E176  E   0.44267  0.94267  0.75000
E177  E   0.55733  0.05733  0.25000
E178  E   0.55733  0.05733  0.75000
E179  E   0.55733  0.05733  0.25000
E180  E   0.55733  0.05733  0.75000
E181  E   0.55733  0.25000  0.05733
E182  E   0.55733  0.25000  0.05733
E183  E   0.55733  0.25000  0.94267
E184  E   0.55733  0.75000  0.05733
E185  E   0.55733  0.75000  0.05733
E186  E   0.55733  0.75000  0.94267
E187  E   0.55733  0.94267  0.25000
E188  E   0.55733  0.94267  0.75000
E189  E   0.56066  0.14179  0.22629
E190  E   0.56066  0.14179  0.77371
E191  E   0.56066  0.22629  0.14179
E192  E   0.56066  0.22629  0.85821
E193  E   0.56066  0.77371  0.14179
E194  E   0.56066  0.77371  0.85821
E195  E   0.56066  0.85821  0.22629
E196  E   0.56066  0.85821  0.77371
E197  E   0.58446  0.11800  0.30737
E198  E   0.58446  0.11800  0.69263
E199  E   0.58446  0.30737  0.11800
E200  E   0.58446  0.30737  0.88200
E201  E   0.58446  0.69263  0.11800
E202  E   0.58446  0.69263  0.88200
E203  E   0.58446  0.88200  0.30737
E204  E   0.58446  0.88200  0.69263
E205  E   0.61800  0.08446  0.19263
E206  E   0.61800  0.08446  0.80737
E207  E   0.61800  0.19263  0.08446
E208  E   0.61800  0.19263  0.91554
E209  E   0.61800  0.80737  0.08446
E210  E   0.61800  0.80737  0.91554
E211  E   0.61800  0.91554  0.19263
E212  E   0.61800  0.91554  0.80737
E213  E   0.64179  0.06066  0.27371
E214  E   0.64179  0.06066  0.72629
E215  E   0.64179  0.27371  0.06066
E216  E   0.64179  0.27371  0.93934
E217  E   0.64179  0.72629  0.06066
E218  E   0.64179  0.72629  0.93934
E219  E   0.64179  0.93934  0.27371
E220  E   0.64179  0.93934  0.72629
E221  E   0.64512  0.14512  0.25000
E222  E   0.64512  0.14512  0.75000
E223  E   0.64512  0.14512  0.25000
E224  E   0.64512  0.14512  0.75000
E225  E   0.64512  0.25000  0.14512
E226  E   0.64512  0.25000  0.14512
E227  E   0.64512  0.25000  0.85488
E228  E   0.64512  0.75000  0.14512
E229  E   0.64512  0.75000  0.14512
E230  E   0.64512  0.75000  0.85488
E231  E   0.64512  0.85488  0.25000
E232  E   0.64512  0.85488  0.75000
E233  E   0.69263  0.11800  0.41554
E234  E   0.69263  0.11800  0.58446
E235  E   0.69263  0.41554  0.11800
E236  E   0.69263  0.41554  0.88200
E237  E   0.69263  0.58446  0.11800
E238  E   0.69263  0.58446  0.88200
E239  E   0.69263  0.88200  0.41554
E240  E   0.69263  0.88200  0.58446
E241  E   0.72629  0.06066  0.35821
E242  E   0.72629  0.06066  0.64179
E243  E   0.72629  0.35821  0.06066
E244  E   0.72629  0.35821  0.93934
E245  E   0.72629  0.64179  0.06066
E246  E   0.72629  0.64179  0.93934
E247  E   0.72629  0.93934  0.35821
E248  E   0.72629  0.93934  0.64179
E249  E   0.75000  0.05733  0.44267
E250  E   0.75000  0.05733  0.55733
E251  E   0.75000  0.05733  0.44267
E252  E   0.75000  0.05733  0.55733
E253  E   0.75000  0.14512  0.35488
E254  E   0.75000  0.14512  0.64512
E255  E   0.75000  0.14512  0.35488
E256  E   0.75000  0.14512  0.64512
E257  E   0.75000  0.35488  0.14512
E258  E   0.75000  0.35488  0.14512
E259  E   0.75000  0.35488  0.85488
E260  E   0.75000  0.44267  0.05733
E261  E   0.75000  0.44267  0.05733
E262  E   0.75000  0.44267  0.94267
E263  E   0.75000  0.55733  0.05733
E264  E   0.75000  0.55733  0.05733
E265  E   0.75000  0.55733  0.94267
E266  E   0.75000  0.64512  0.14512
E267  E   0.75000  0.64512  0.14512
E268  E   0.75000  0.64512  0.85488
E269  E   0.75000  0.85488  0.35488
E270  E   0.75000  0.85488  0.64512
E271  E   0.75000  0.94267  0.44267
E272  E   0.75000  0.94267  0.55733
E273  E   0.77371  0.14179  0.43934
E274  E   0.77371  0.14179  0.56066
E275  E   0.77371  0.43934  0.14179
E276  E   0.77371  0.43934  0.85821
E277  E   0.77371  0.56066  0.14179
E278  E   0.77371  0.56066  0.85821
E279  E   0.77371  0.85821  0.43934
E280  E   0.77371  0.85821  0.56066
E281  E   0.80737  0.08446  0.38200
E282  E   0.80737  0.08446  0.61800
E283  E   0.80737  0.38200  0.08446
E284  E   0.80737  0.38200  0.91554
E285  E   0.80737  0.61800  0.08446
E286  E   0.80737  0.61800  0.91554
E287  E   0.80737  0.91554  0.38200
E288  E   0.80737  0.91554  0.61800
E289  E   0.85488  0.25000  0.35488
E290  E   0.85488  0.25000  0.64512
E291  E   0.85488  0.35488  0.25000
E292  E   0.85488  0.35488  0.75000
E293  E   0.85488  0.64512  0.25000
E294  E   0.85488  0.64512  0.75000
E295  E   0.85488  0.75000  0.35488
E296  E   0.85488  0.75000  0.64512
E297  E   0.85821  0.22629  0.43934
E298  E   0.85821  0.22629  0.56066
E299  E   0.85821  0.43934  0.22629
E300  E   0.85821  0.43934  0.77371
E301  E   0.85821  0.56066  0.22629
E302  E   0.85821  0.56066  0.77371
E303  E   0.85821  0.77371  0.43934
E304  E   0.85821  0.77371  0.56066
E305  E   0.88200  0.30737  0.41554
E306  E   0.88200  0.30737  0.58446
E307  E   0.88200  0.41554  0.30737
E308  E   0.88200  0.41554  0.69263
E309  E   0.88200  0.58446  0.30737
E310  E   0.88200  0.58446  0.69263
E311  E   0.88200  0.69263  0.41554
E312  E   0.88200  0.69263  0.58446
E313  E   0.91554  0.19263  0.38200
E314  E   0.91554  0.19263  0.61800
E315  E   0.91554  0.38200  0.19263
E316  E   0.91554  0.38200  0.80737
E317  E   0.91554  0.61800  0.19263
E318  E   0.91554  0.61800  0.80737
E319  E   0.91554  0.80737  0.38200
E320  E   0.91554  0.80737  0.61800
E321  E   0.93934  0.27371  0.35821
E322  E   0.93934  0.27371  0.64179
E323  E   0.93934  0.35821  0.27371
E324  E   0.93934  0.35821  0.72629
E325  E   0.93934  0.64179  0.27371
E326  E   0.93934  0.64179  0.72629
E327  E   0.93934  0.72629  0.35821
E328  E   0.93934  0.72629  0.64179
E329  E   0.94267  0.25000  0.44267
E330  E   0.94267  0.25000  0.55733
E331  E   0.94267  0.44267  0.25000
E332  E   0.94267  0.44267  0.75000
E333  E   0.94267  0.55733  0.25000
E334  E   0.94267  0.55733  0.75000
E335  E   0.94267  0.75000  0.44267
E336  E   0.94267  0.75000  0.55733
loop_
