data_rhr-a_Im-3m  hall_number: 529, V_con: 3
_audit_creation_date              2025-03-06
_audit_creation_method            'MOFbuilder_1.0'
_symmetry_space_group_name_H-M    'P1'
_symmetry_Int_Tables_number       1
_symmetry_cell_setting            triclinic
loop_
_symmetry_equiv_pos_as_xyz
  x,y,z
_cell_length_a                    82.92519999999999
_cell_length_b                    82.92519999999999
_cell_length_c                    82.92519999999999
_cell_angle_alpha                 90.0
_cell_angle_beta                  90.0
_cell_angle_gamma                 90.0
loop_
_atom_site_label
_atom_site_type_symbol
_atom_site_fract_x
_atom_site_fract_y
_atom_site_fract_z
V1    V   0.06030  0.28467  0.36994
V2    V   0.06030  0.28467  0.63006
V3    V   0.06030  0.36994  0.28467
V4    V   0.06030  0.36994  0.71533
V5    V   0.06030  0.63006  0.28467
V6    V   0.06030  0.63006  0.71533
V7    V   0.06030  0.71533  0.36994
V8    V   0.06030  0.71533  0.63006
V9    V   0.13006  0.21533  0.43970
V10   V   0.13006  0.21533  0.56030
V11   V   0.13006  0.43970  0.21533
V12   V   0.13006  0.43970  0.78467
V13   V   0.13006  0.56030  0.21533
V14   V   0.13006  0.56030  0.78467
V15   V   0.13006  0.78467  0.43970
V16   V   0.13006  0.78467  0.56030
V17   V   0.21533  0.13006  0.43970
V18   V   0.21533  0.13006  0.56030
V19   V   0.21533  0.43970  0.13006
V20   V   0.21533  0.43970  0.86994
V21   V   0.21533  0.56030  0.13006
V22   V   0.21533  0.56030  0.86994
V23   V   0.21533  0.86994  0.43970
V24   V   0.21533  0.86994  0.56030
V25   V   0.28467  0.06030  0.36994
V26   V   0.28467  0.06030  0.63006
V27   V   0.28467  0.36994  0.06030
V28   V   0.28467  0.36994  0.93970
V29   V   0.28467  0.63006  0.06030
V30   V   0.28467  0.63006  0.93970
V31   V   0.28467  0.93970  0.36994
V32   V   0.28467  0.93970  0.63006
V33   V   0.36994  0.06030  0.28467
V34   V   0.36994  0.06030  0.71533
V35   V   0.36994  0.28467  0.06030
V36   V   0.36994  0.28467  0.93970
V37   V   0.36994  0.71533  0.06030
V38   V   0.36994  0.71533  0.93970
V39   V   0.36994  0.93970  0.28467
V40   V   0.36994  0.93970  0.71533
V41   V   0.43970  0.13006  0.21533
V42   V   0.43970  0.13006  0.78467
V43   V   0.43970  0.21533  0.13006
V44   V   0.43970  0.21533  0.86994
V45   V   0.43970  0.78467  0.13006
V46   V   0.43970  0.78467  0.86994
V47   V   0.43970  0.86994  0.21533
V48   V   0.43970  0.86994  0.78467
V49   V   0.56030  0.13006  0.21533
V50   V   0.56030  0.13006  0.78467
V51   V   0.56030  0.21533  0.13006
V52   V   0.56030  0.21533  0.86994
V53   V   0.56030  0.78467  0.13006
V54   V   0.56030  0.78467  0.86994
V55   V   0.56030  0.86994  0.21533
V56   V   0.56030  0.86994  0.78467
V57   V   0.63006  0.06030  0.28467
V58   V   0.63006  0.06030  0.71533
V59   V   0.63006  0.28467  0.06030
V60   V   0.63006  0.28467  0.93970
V61   V   0.63006  0.71533  0.06030
V62   V   0.63006  0.71533  0.93970
V63   V   0.63006  0.93970  0.28467
V64   V   0.63006  0.93970  0.71533
V65   V   0.71533  0.06030  0.36994
V66   V   0.71533  0.06030  0.63006
V67   V   0.71533  0.36994  0.06030
V68   V   0.71533  0.36994  0.93970
V69   V   0.71533  0.63006  0.06030
V70   V   0.71533  0.63006  0.93970
V71   V   0.71533  0.93970  0.36994
V72   V   0.71533  0.93970  0.63006
V73   V   0.78467  0.13006  0.43970
V74   V   0.78467  0.13006  0.56030
V75   V   0.78467  0.43970  0.13006
V76   V   0.78467  0.43970  0.86994
V77   V   0.78467  0.56030  0.13006
V78   V   0.78467  0.56030  0.86994
V79   V   0.78467  0.86994  0.43970
V80   V   0.78467  0.86994  0.56030
V81   V   0.86994  0.21533  0.43970
V82   V   0.86994  0.21533  0.56030
V83   V   0.86994  0.43970  0.21533
V84   V   0.86994  0.43970  0.78467
V85   V   0.86994  0.56030  0.21533
V86   V   0.86994  0.56030  0.78467
V87   V   0.86994  0.78467  0.43970
V88   V   0.86994  0.78467  0.56030
V89   V   0.93970  0.28467  0.36994
V90   V   0.93970  0.28467  0.63006
V91   V   0.93970  0.36994  0.28467
V92   V   0.93970  0.36994  0.71533
V93   V   0.93970  0.63006  0.28467
V94   V   0.93970  0.63006  0.71533
V95   V   0.93970  0.71533  0.36994
V96   V   0.93970  0.71533  0.63006
E1    E   0.00000  0.28467  0.36994
E2    E   0.00000  0.28467  0.63006
E3    E   0.00000  0.36994  0.28467
E4    E   0.00000  0.36994  0.71533
E5    E   0.00000  0.63006  0.28467
E6    E   0.00000  0.63006  0.71533
E7    E   0.00000  0.71533  0.36994
E8    E   0.00000  0.71533  0.63006
E9    E   0.06030  0.32730  0.32730
E10   E   0.06030  0.32730  0.67270
E11   E   0.06030  0.67270  0.32730
E12   E   0.06030  0.67270  0.67270
E13   E   0.09518  0.25000  0.40482
E14   E   0.09518  0.25000  0.59518
E15   E   0.09518  0.40482  0.25000
E16   E   0.09518  0.40482  0.75000
E17   E   0.09518  0.59518  0.25000
E18   E   0.09518  0.59518  0.75000
E19   E   0.09518  0.75000  0.40482
E20   E   0.09518  0.75000  0.59518
E21   E   0.09518  0.25000  0.40482
E22   E   0.09518  0.25000  0.59518
E23   E   0.09518  0.40482  0.25000
E24   E   0.09518  0.40482  0.75000
E25   E   0.09518  0.59518  0.25000
E26   E   0.09518  0.59518  0.75000
E27   E   0.09518  0.75000  0.40482
E28   E   0.09518  0.75000  0.59518
E29   E   0.13006  0.21533  0.50000
E30   E   0.13006  0.50000  0.21533
E31   E   0.13006  0.50000  0.78467
E32   E   0.13006  0.78467  0.50000
E33   E   0.17270  0.17270  0.43970
E34   E   0.17270  0.17270  0.56030
E35   E   0.17270  0.43970  0.17270
E36   E   0.17270  0.43970  0.82730
E37   E   0.17270  0.56030  0.17270
E38   E   0.17270  0.56030  0.82730
E39   E   0.17270  0.82730  0.43970
E40   E   0.17270  0.82730  0.56030
E41   E   0.21533  0.13006  0.50000
E42   E   0.21533  0.50000  0.13006
E43   E   0.21533  0.50000  0.86994
E44   E   0.21533  0.86994  0.50000
E45   E   0.25000  0.09518  0.40482
E46   E   0.25000  0.09518  0.59518
E47   E   0.25000  0.09518  0.40482
E48   E   0.25000  0.09518  0.59518
E49   E   0.25000  0.40482  0.09518
E50   E   0.25000  0.40482  0.09518
E51   E   0.25000  0.40482  0.90482
E52   E   0.25000  0.59518  0.09518
E53   E   0.25000  0.59518  0.09518
E54   E   0.25000  0.59518  0.90482
E55   E   0.25000  0.90482  0.40482
E56   E   0.25000  0.90482  0.59518
E57   E   0.28467  0.00000  0.36994
E58   E   0.28467  0.00000  0.63006
E59   E   0.28467  0.36994  0.00000
E60   E   0.28467  0.63006  0.00000
E61   E   0.32730  0.06030  0.32730
E62   E   0.32730  0.06030  0.67270
E63   E   0.32730  0.32730  0.06030
E64   E   0.32730  0.32730  0.93970
E65   E   0.32730  0.67270  0.06030
E66   E   0.32730  0.67270  0.93970
E67   E   0.32730  0.93970  0.32730
E68   E   0.32730  0.93970  0.67270
E69   E   0.36994  0.00000  0.28467
E70   E   0.36994  0.00000  0.71533
E71   E   0.36994  0.28467  0.00000
E72   E   0.36994  0.71533  0.00000
E73   E   0.40482  0.09518  0.25000
E74   E   0.40482  0.09518  0.75000
E75   E   0.40482  0.09518  0.25000
E76   E   0.40482  0.09518  0.75000
E77   E   0.40482  0.25000  0.09518
E78   E   0.40482  0.25000  0.09518
E79   E   0.40482  0.25000  0.90482
E80   E   0.40482  0.75000  0.09518
E81   E   0.40482  0.75000  0.09518
E82   E   0.40482  0.75000  0.90482
E83   E   0.40482  0.90482  0.25000
E84   E   0.40482  0.90482  0.75000
E85   E   0.43970  0.17270  0.17270
E86   E   0.43970  0.17270  0.82730
E87   E   0.43970  0.82730  0.17270
E88   E   0.43970  0.82730  0.82730
E89   E   0.50000  0.13006  0.21533
E90   E   0.50000  0.13006  0.78467
E91   E   0.50000  0.21533  0.13006
E92   E   0.50000  0.21533  0.86994
E93   E   0.50000  0.78467  0.13006
E94   E   0.50000  0.78467  0.86994
E95   E   0.50000  0.86994  0.21533
E96   E   0.50000  0.86994  0.78467
E97   E   0.56030  0.17270  0.17270
E98   E   0.56030  0.17270  0.82730
E99   E   0.56030  0.82730  0.17270
E100  E   0.56030  0.82730  0.82730
E101  E   0.59518  0.09518  0.25000
E102  E   0.59518  0.09518  0.75000
E103  E   0.59518  0.09518  0.25000
E104  E   0.59518  0.09518  0.75000
E105  E   0.59518  0.25000  0.09518
E106  E   0.59518  0.25000  0.09518
E107  E   0.59518  0.25000  0.90482
E108  E   0.59518  0.75000  0.09518
E109  E   0.59518  0.75000  0.09518
E110  E   0.59518  0.75000  0.90482
E111  E   0.59518  0.90482  0.25000
E112  E   0.59518  0.90482  0.75000
E113  E   0.63006  0.00000  0.28467
E114  E   0.63006  0.00000  0.71533
E115  E   0.63006  0.28467  0.00000
E116  E   0.63006  0.71533  0.00000
E117  E   0.67270  0.06030  0.32730
E118  E   0.67270  0.06030  0.67270
E119  E   0.67270  0.32730  0.06030
E120  E   0.67270  0.32730  0.93970
E121  E   0.67270  0.67270  0.06030
E122  E   0.67270  0.67270  0.93970
E123  E   0.67270  0.93970  0.32730
E124  E   0.67270  0.93970  0.67270
E125  E   0.71533  0.00000  0.36994
E126  E   0.71533  0.00000  0.63006
E127  E   0.71533  0.36994  0.00000
E128  E   0.71533  0.63006  0.00000
E129  E   0.75000  0.09518  0.40482
E130  E   0.75000  0.09518  0.59518
E131  E   0.75000  0.09518  0.40482
E132  E   0.75000  0.09518  0.59518
E133  E   0.75000  0.40482  0.09518
E134  E   0.75000  0.40482  0.09518
E135  E   0.75000  0.40482  0.90482
E136  E   0.75000  0.59518  0.09518
E137  E   0.75000  0.59518  0.09518
E138  E   0.75000  0.59518  0.90482
E139  E   0.75000  0.90482  0.40482
E140  E   0.75000  0.90482  0.59518
E141  E   0.78467  0.13006  0.50000
E142  E   0.78467  0.50000  0.13006
E143  E   0.78467  0.50000  0.86994
E144  E   0.78467  0.86994  0.50000
E145  E   0.82730  0.17270  0.43970
E146  E   0.82730  0.17270  0.56030
E147  E   0.82730  0.43970  0.17270
E148  E   0.82730  0.43970  0.82730
E149  E   0.82730  0.56030  0.17270
E150  E   0.82730  0.56030  0.82730
E151  E   0.82730  0.82730  0.43970
E152  E   0.82730  0.82730  0.56030
E153  E   0.86994  0.21533  0.50000
E154  E   0.86994  0.50000  0.21533
E155  E   0.86994  0.50000  0.78467
E156  E   0.86994  0.78467  0.50000
E157  E   0.90482  0.25000  0.40482
E158  E   0.90482  0.25000  0.59518
E159  E   0.90482  0.40482  0.25000
E160  E   0.90482  0.40482  0.75000
E161  E   0.90482  0.59518  0.25000
E162  E   0.90482  0.59518  0.75000
E163  E   0.90482  0.75000  0.40482
E164  E   0.90482  0.75000  0.59518
E165  E   0.93970  0.32730  0.32730
E166  E   0.93970  0.32730  0.67270
E167  E   0.93970  0.67270  0.32730
E168  E   0.93970  0.67270  0.67270
loop_
