data_scg_C12/c1  hall_number: 107, V_con: 7, EC_con: 7
_audit_creation_date              2025-03-06
_audit_creation_method            'MOFbuilder_1.0'
_symmetry_space_group_name_H-M    'P1'
_symmetry_Int_Tables_number       1
_symmetry_cell_setting            triclinic
loop_
_symmetry_equiv_pos_as_xyz
  x,y,z
_cell_length_a                    16.6383
_cell_length_b                    31.098
_cell_length_c                    17.3206
_cell_angle_alpha                 90.0
_cell_angle_beta                  107.9936
_cell_angle_gamma                 90.0
loop_
_atom_site_label
_atom_site_type_symbol
_atom_site_fract_x
_atom_site_fract_y
_atom_site_fract_z
V1    V   0.00000  0.24117  0.25000
V2    V   0.00000  0.25883  0.75000
V3    V   0.00000  0.74117  0.25000
V4    V   0.00000  0.75883  0.75000
V5    V   0.50000  0.24117  0.75000
V6    V   0.50000  0.25883  0.25000
V7    V   0.50000  0.74117  0.75000
V8    V   0.50000  0.75883  0.25000
EC1    EC   0.00000  0.08039  0.75000
EC2    EC   0.00000  0.41961  0.25000
EC3    EC   0.00000  0.58039  0.75000
EC4    EC   0.00000  0.91961  0.25000
EC5    EC   0.50000  0.08039  0.25000
EC6    EC   0.50000  0.41961  0.75000
EC7    EC   0.50000  0.58039  0.25000
EC8    EC   0.50000  0.91961  0.75000
E1    E   0.00000  0.00000  0.50000
E2    E   0.00000  0.08039  0.25000
E3    E   0.00000  0.16078  0.00000
E4    E   0.00000  0.33922  0.00000
E5    E   0.00000  0.41961  0.75000
E6    E   0.00000  0.50000  0.50000
E7    E   0.00000  0.58039  0.25000
E8    E   0.00000  0.66078  0.00000
E9    E   0.00000  0.83922  0.00000
E10   E   0.00000  0.91961  0.75000
E11   E   0.25000  0.16961  0.25000
E12   E   0.25000  0.16961  0.75000
E13   E   0.25000  0.25000  0.00000
E14   E   0.25000  0.25000  0.50000
E15   E   0.25000  0.33039  0.25000
E16   E   0.25000  0.33039  0.75000
E17   E   0.50000  0.00000  0.00000
E18   E   0.50000  0.08039  0.75000
E19   E   0.50000  0.16078  0.50000
E20   E   0.50000  0.33922  0.50000
E21   E   0.50000  0.41961  0.25000
E22   E   0.50000  0.50000  0.00000
E23   E   0.50000  0.58039  0.75000
E24   E   0.50000  0.66078  0.50000
E25   E   0.50000  0.83922  0.50000
E26   E   0.50000  0.91961  0.25000
E27   E   0.75000  0.66961  0.25000
E28   E   0.75000  0.66961  0.75000
E29   E   0.75000  0.75000  0.00000
E30   E   0.75000  0.75000  0.50000
E31   E   0.75000  0.83039  0.25000
E32   E   0.75000  0.83039  0.75000
loop_
