data_scu-f_P422  hall_number: 366, V_con: 5, EC_con: 4
_audit_creation_date              2025-03-06
_audit_creation_method            'MOFbuilder_1.0'
_symmetry_space_group_name_H-M    'P1'
_symmetry_Int_Tables_number       1
_symmetry_cell_setting            triclinic
loop_
_symmetry_equiv_pos_as_xyz
  x,y,z
_cell_length_a                    36.555499999999995
_cell_length_b                    36.555499999999995
_cell_length_c                    26.7791
_cell_angle_alpha                 90.0
_cell_angle_beta                  90.0
_cell_angle_gamma                 90.0
loop_
_atom_site_label
_atom_site_type_symbol
_atom_site_fract_x
_atom_site_fract_y
_atom_site_fract_z
V1    V   0.07403  0.17871  0.65701
V2    V   0.07403  0.82129  0.34299
V3    V   0.17871  0.07403  0.34299
V4    V   0.17871  0.92597  0.65701
V5    V   0.82129  0.07403  0.65701
V6    V   0.82129  0.92597  0.34299
V7    V   0.92597  0.17871  0.34299
V8    V   0.92597  0.82129  0.65701
EC1    EC   0.09672  0.40328  0.86798
EC2    EC   0.09672  0.59672  0.13202
EC3    EC   0.40328  0.09672  0.13202
EC4    EC   0.40328  0.90328  0.86798
EC5    EC   0.59672  0.09672  0.86798
EC6    EC   0.59672  0.90328  0.13202
EC7    EC   0.90328  0.40328  0.13202
EC8    EC   0.90328  0.59672  0.86798
E1    E   0.00000  0.17871  0.50000
E2    E   0.00000  0.40328  0.00000
E3    E   0.00000  0.50000  0.13202
E4    E   0.00000  0.50000  0.86798
E5    E   0.00000  0.59672  0.00000
E6    E   0.00000  0.82129  0.50000
E7    E   0.05234  0.12637  0.34299
E8    E   0.05234  0.87363  0.65701
E9    E   0.08537  0.29100  0.76249
E10   E   0.08537  0.70900  0.23751
E11   E   0.09672  0.50000  0.00000
E12   E   0.12637  0.05234  0.65701
E13   E   0.12637  0.12637  0.50000
E14   E   0.12637  0.87363  0.50000
E15   E   0.12637  0.94766  0.34299
E16   E   0.17871  0.00000  0.50000
E17   E   0.29100  0.08537  0.23751
E18   E   0.29100  0.91463  0.76249
E19   E   0.40328  0.00000  0.00000
E20   E   0.50000  0.00000  0.13202
E21   E   0.50000  0.00000  0.86798
E22   E   0.50000  0.09672  0.00000
E23   E   0.50000  0.90328  0.00000
E24   E   0.59672  0.00000  0.00000
E25   E   0.70900  0.08537  0.76249
E26   E   0.70900  0.91463  0.23751
E27   E   0.82129  0.00000  0.50000
E28   E   0.87363  0.05234  0.34299
E29   E   0.87363  0.12637  0.50000
E30   E   0.87363  0.87363  0.50000
E31   E   0.87363  0.94766  0.65701
E32   E   0.90328  0.50000  0.00000
E33   E   0.91463  0.29100  0.23751
E34   E   0.91463  0.70900  0.76249
E35   E   0.94766  0.12637  0.65701
E36   E   0.94766  0.87363  0.34299
loop_
