data_siy_Pm-3m  hall_number: 517, V_con: 3, EC_con: 3
_audit_creation_date              2025-03-06
_audit_creation_method            'MOFbuilder_1.0'
_symmetry_space_group_name_H-M    'P1'
_symmetry_Int_Tables_number       1
_symmetry_cell_setting            triclinic
loop_
_symmetry_equiv_pos_as_xyz
  x,y,z
_cell_length_a                    58.78529999999999
_cell_length_b                    58.78529999999999
_cell_length_c                    58.78529999999999
_cell_angle_alpha                 90.0
_cell_angle_beta                  90.0
_cell_angle_gamma                 90.0
loop_
_atom_site_label
_atom_site_type_symbol
_atom_site_fract_x
_atom_site_fract_y
_atom_site_fract_z
V1    V   0.08506  0.40141  0.40141
V2    V   0.08506  0.40141  0.59859
V3    V   0.08506  0.59859  0.40141
V4    V   0.08506  0.59859  0.59859
V5    V   0.40141  0.08506  0.40141
V6    V   0.40141  0.08506  0.59859
V7    V   0.40141  0.40141  0.08506
V8    V   0.40141  0.40141  0.91494
V9    V   0.40141  0.59859  0.08506
V10   V   0.40141  0.59859  0.91494
V11   V   0.40141  0.91494  0.40141
V12   V   0.40141  0.91494  0.59859
V13   V   0.59859  0.08506  0.40141
V14   V   0.59859  0.08506  0.59859
V15   V   0.59859  0.40141  0.08506
V16   V   0.59859  0.40141  0.91494
V17   V   0.59859  0.59859  0.08506
V18   V   0.59859  0.59859  0.91494
V19   V   0.59859  0.91494  0.40141
V20   V   0.59859  0.91494  0.59859
V21   V   0.91494  0.40141  0.40141
V22   V   0.91494  0.40141  0.59859
V23   V   0.91494  0.59859  0.40141
V24   V   0.91494  0.59859  0.59859
EC1    EC   0.18328  0.30362  0.50000
EC2    EC   0.18328  0.50000  0.30362
EC3    EC   0.18328  0.50000  0.69638
EC4    EC   0.18328  0.69638  0.50000
EC5    EC   0.30362  0.18328  0.50000
EC6    EC   0.30362  0.50000  0.18328
EC7    EC   0.30362  0.50000  0.81672
EC8    EC   0.30362  0.81672  0.50000
EC9    EC   0.50000  0.18328  0.30362
EC10   EC   0.50000  0.18328  0.69638
EC11   EC   0.50000  0.30362  0.18328
EC12   EC   0.50000  0.30362  0.81672
EC13   EC   0.50000  0.69638  0.18328
EC14   EC   0.50000  0.69638  0.81672
EC15   EC   0.50000  0.81672  0.30362
EC16   EC   0.50000  0.81672  0.69638
EC17   EC   0.69638  0.18328  0.50000
EC18   EC   0.69638  0.50000  0.18328
EC19   EC   0.69638  0.50000  0.81672
EC20   EC   0.69638  0.81672  0.50000
EC21   EC   0.81672  0.30362  0.50000
EC22   EC   0.81672  0.50000  0.30362
EC23   EC   0.81672  0.50000  0.69638
EC24   EC   0.81672  0.69638  0.50000
E1    E   0.00000  0.40141  0.40141
E2    E   0.00000  0.40141  0.59859
E3    E   0.00000  0.59859  0.40141
E4    E   0.00000  0.59859  0.59859
E5    E   0.13417  0.35251  0.45070
E6    E   0.13417  0.35251  0.54930
E7    E   0.13417  0.45070  0.35251
E8    E   0.13417  0.45070  0.64749
E9    E   0.13417  0.54930  0.35251
E10   E   0.13417  0.54930  0.64749
E11   E   0.13417  0.64749  0.45070
E12   E   0.13417  0.64749  0.54930
E13   E   0.24345  0.24345  0.50000
E14   E   0.24345  0.50000  0.24345
E15   E   0.24345  0.50000  0.75655
E16   E   0.24345  0.75655  0.50000
E17   E   0.35251  0.13417  0.45070
E18   E   0.35251  0.13417  0.54930
E19   E   0.35251  0.45070  0.13417
E20   E   0.35251  0.45070  0.86583
E21   E   0.35251  0.54930  0.13417
E22   E   0.35251  0.54930  0.86583
E23   E   0.35251  0.86583  0.45070
E24   E   0.35251  0.86583  0.54930
E25   E   0.40141  0.00000  0.40141
E26   E   0.40141  0.00000  0.59859
E27   E   0.40141  0.40141  0.00000
E28   E   0.40141  0.59859  0.00000
E29   E   0.45070  0.13417  0.35251
E30   E   0.45070  0.13417  0.64749
E31   E   0.45070  0.35251  0.13417
E32   E   0.45070  0.35251  0.86583
E33   E   0.45070  0.64749  0.13417
E34   E   0.45070  0.64749  0.86583
E35   E   0.45070  0.86583  0.35251
E36   E   0.45070  0.86583  0.64749
E37   E   0.50000  0.24345  0.24345
E38   E   0.50000  0.24345  0.75655
E39   E   0.50000  0.75655  0.24345
E40   E   0.50000  0.75655  0.75655
E41   E   0.54930  0.13417  0.35251
E42   E   0.54930  0.13417  0.64749
E43   E   0.54930  0.35251  0.13417
E44   E   0.54930  0.35251  0.86583
E45   E   0.54930  0.64749  0.13417
E46   E   0.54930  0.64749  0.86583
E47   E   0.54930  0.86583  0.35251
E48   E   0.54930  0.86583  0.64749
E49   E   0.59859  0.00000  0.40141
E50   E   0.59859  0.00000  0.59859
E51   E   0.59859  0.40141  0.00000
E52   E   0.59859  0.59859  0.00000
E53   E   0.64749  0.13417  0.45070
E54   E   0.64749  0.13417  0.54930
E55   E   0.64749  0.45070  0.13417
E56   E   0.64749  0.45070  0.86583
E57   E   0.64749  0.54930  0.13417
E58   E   0.64749  0.54930  0.86583
E59   E   0.64749  0.86583  0.45070
E60   E   0.64749  0.86583  0.54930
E61   E   0.75655  0.24345  0.50000
E62   E   0.75655  0.50000  0.24345
E63   E   0.75655  0.50000  0.75655
E64   E   0.75655  0.75655  0.50000
E65   E   0.86583  0.35251  0.45070
E66   E   0.86583  0.35251  0.54930
E67   E   0.86583  0.45070  0.35251
E68   E   0.86583  0.45070  0.64749
E69   E   0.86583  0.54930  0.35251
E70   E   0.86583  0.54930  0.64749
E71   E   0.86583  0.64749  0.45070
E72   E   0.86583  0.64749  0.54930
loop_
