data_skl_P42/nmc:2  hall_number: 421, V_con: 16, EC_con: 3
_audit_creation_date              2025-03-06
_audit_creation_method            'MOFbuilder_1.0'
_symmetry_space_group_name_H-M    'P1'
_symmetry_Int_Tables_number       1
_symmetry_cell_setting            triclinic
loop_
_symmetry_equiv_pos_as_xyz
  x,y,z
_cell_length_a                    10.0
_cell_length_b                    10.0
_cell_length_c                    35.946600000000004
_cell_angle_alpha                 90.0
_cell_angle_beta                  90.0
_cell_angle_gamma                 90.0
loop_
_atom_site_label
_atom_site_type_symbol
_atom_site_fract_x
_atom_site_fract_y
_atom_site_fract_z
V1    V   0.25000  0.75000  0.25000
V2    V   0.75000  0.25000  0.75000
EC1    EC   0.00158  0.75000  0.98053
EC2    EC   0.25000  0.50158  0.51947
EC3    EC   0.25000  0.99842  0.51947
EC4    EC   0.49842  0.75000  0.98053
EC5    EC   0.50158  0.25000  0.01947
EC6    EC   0.75000  0.00158  0.48053
EC7    EC   0.75000  0.49842  0.48053
EC8    EC   0.99842  0.25000  0.01947
E1    E   0.00000  0.12421  0.63473
E2    E   0.00000  0.37579  0.63473
E3    E   0.00000  0.62421  0.36527
E4    E   0.00000  0.87579  0.36527
E5    E   0.12421  0.00000  0.13473
E6    E   0.12421  0.50000  0.13473
E7    E   0.12579  0.75000  0.11527
E8    E   0.25000  0.25000  0.25000
E9    E   0.25000  0.25000  0.75000
E10   E   0.25000  0.62579  0.38473
E11   E   0.25000  0.87421  0.38473
E12   E   0.37421  0.75000  0.11527
E13   E   0.37579  0.00000  0.13473
E14   E   0.37579  0.50000  0.13473
E15   E   0.50000  0.12421  0.63473
E16   E   0.50000  0.37579  0.63473
E17   E   0.50000  0.62421  0.36527
E18   E   0.50000  0.87579  0.36527
E19   E   0.62421  0.00000  0.86527
E20   E   0.62421  0.50000  0.86527
E21   E   0.62579  0.25000  0.88473
E22   E   0.75000  0.12579  0.61527
E23   E   0.75000  0.37421  0.61527
E24   E   0.75000  0.75000  0.25000
E25   E   0.75000  0.75000  0.75000
E26   E   0.87421  0.25000  0.88473
E27   E   0.87579  0.00000  0.86527
E28   E   0.87579  0.50000  0.86527
loop_
