data_smh_P6122  hall_number: 472, V_con: 6
_audit_creation_date              2025-03-06
_audit_creation_method            'MOFbuilder_1.0'
_symmetry_space_group_name_H-M    'P1'
_symmetry_Int_Tables_number       1
_symmetry_cell_setting            triclinic
loop_
_symmetry_equiv_pos_as_xyz
  x,y,z
_cell_length_a                    33.8563
_cell_length_b                    33.8563
_cell_length_c                    10.0
_cell_angle_alpha                 90.0
_cell_angle_beta                  90.0
_cell_angle_gamma                 120.0
loop_
_atom_site_label
_atom_site_type_symbol
_atom_site_fract_x
_atom_site_fract_y
_atom_site_fract_z
V1    V   0.14768  0.57384  0.08333
V2    V   0.14768  0.57384  0.08334
V3    V   0.42616  0.57384  0.41666
V4    V   0.42616  0.57384  0.41667
V5    V   0.42616  0.85232  0.75000
V6    V   0.42616  0.85232  0.75000
V7    V   0.57384  0.14768  0.25000
V8    V   0.57384  0.14768  0.25000
V9    V   0.57384  0.42616  0.91666
V10   V   0.57384  0.42616  0.91667
V11   V   0.85232  0.42616  0.58333
V12   V   0.85232  0.42616  0.58334
E1    E   0.00000  0.50000  0.33333
E2    E   0.00000  0.50000  0.33334
E3    E   0.00000  0.50000  0.83333
E4    E   0.00000  0.50000  0.83334
E5    E   0.14768  0.57384  0.58333
E6    E   0.14768  0.57384  0.58334
E7    E   0.28692  0.57384  0.25000
E8    E   0.28692  0.71308  0.91667
E9    E   0.42616  0.57384  0.91666
E10   E   0.42616  0.57384  0.91667
E11   E   0.42616  0.71308  0.58333
E12   E   0.42616  0.71308  0.58333
E13   E   0.42616  0.85232  0.25000
E14   E   0.42616  0.85232  0.25000
E15   E   0.50000  0.00000  0.00000
E16   E   0.50000  0.00000  0.50000
E17   E   0.50000  0.00000  0.50000
E18   E   0.50000  0.00000  1.00000
E19   E   0.50000  0.50000  0.16666
E20   E   0.50000  0.50000  0.16667
E21   E   0.50000  0.50000  0.66666
E22   E   0.50000  0.50000  0.66667
E23   E   0.57384  0.14768  0.75000
E24   E   0.57384  0.14768  0.75000
E25   E   0.57384  0.28692  0.08333
E26   E   0.57384  0.28692  0.08333
E27   E   0.57384  0.42616  0.41666
E28   E   0.57384  0.42616  0.41667
E29   E   0.71308  0.28692  0.41667
E30   E   0.71308  0.42616  0.75000
E31   E   0.85232  0.42616  0.08333
E32   E   0.85232  0.42616  0.08334
loop_
