data_smk_P6122  hall_number: 472, V_con: 6
_audit_creation_date              2025-03-06
_audit_creation_method            'MOFbuilder_1.0'
_symmetry_space_group_name_H-M    'P1'
_symmetry_Int_Tables_number       1
_symmetry_cell_setting            triclinic
loop_
_symmetry_equiv_pos_as_xyz
  x,y,z
_cell_length_a                    26.5063
_cell_length_b                    26.5063
_cell_length_c                    10.0
_cell_angle_alpha                 90.0
_cell_angle_beta                  90.0
_cell_angle_gamma                 120.0
loop_
_atom_site_label
_atom_site_type_symbol
_atom_site_fract_x
_atom_site_fract_y
_atom_site_fract_z
V1    V   0.21477  0.42954  0.75000
V2    V   0.21477  0.42954  0.75000
V3    V   0.21477  0.78523  0.41666
V4    V   0.21477  0.78523  0.41667
V5    V   0.42954  0.21477  0.58333
V6    V   0.42954  0.21477  0.58334
V7    V   0.57046  0.78523  0.08333
V8    V   0.57046  0.78523  0.08334
V9    V   0.78523  0.21477  0.91666
V10   V   0.78523  0.21477  0.91667
V11   V   0.78523  0.57046  0.25000
V12   V   0.78523  0.57046  0.25000
E1    E   0.00000  0.32216  0.83333
E2    E   0.00000  0.67784  0.33333
E3    E   0.00000  0.67784  0.33333
E4    E   0.21477  0.42954  0.25000
E5    E   0.21477  0.42954  0.25000
E6    E   0.21477  0.78523  0.91666
E7    E   0.21477  0.78523  0.91667
E8    E   0.21478  0.60739  0.58333
E9    E   0.21478  0.60739  0.58334
E10   E   0.32216  0.00000  0.50000
E11   E   0.32216  0.32216  0.66667
E12   E   0.39261  0.60739  0.91666
E13   E   0.39261  0.60739  0.91667
E14   E   0.39261  0.78522  0.25000
E15   E   0.39261  0.78522  0.25000
E16   E   0.42954  0.21477  0.08333
E17   E   0.42954  0.21477  0.08334
E18   E   0.57046  0.78523  0.58333
E19   E   0.57046  0.78523  0.58334
E20   E   0.60739  0.21478  0.75000
E21   E   0.60739  0.21478  0.75000
E22   E   0.60739  0.39261  0.41666
E23   E   0.60739  0.39261  0.41667
E24   E   0.67784  0.00000  0.00000
E25   E   0.67784  0.67784  0.16667
E26   E   0.67784  0.67784  0.16667
E27   E   0.78522  0.39261  0.08333
E28   E   0.78522  0.39261  0.08334
E29   E   0.78523  0.21477  0.41666
E30   E   0.78523  0.21477  0.41667
E31   E   0.78523  0.57046  0.75000
E32   E   0.78523  0.57046  0.75000
loop_
