data_snf_Pm-3  hall_number: 494, V_con: 6
_audit_creation_date              2025-03-06
_audit_creation_method            'MOFbuilder_1.0'
_symmetry_space_group_name_H-M    'P1'
_symmetry_Int_Tables_number       1
_symmetry_cell_setting            triclinic
loop_
_symmetry_equiv_pos_as_xyz
  x,y,z
_cell_length_a                    26.180300000000003
_cell_length_b                    26.180300000000003
_cell_length_c                    26.180300000000003
_cell_angle_alpha                 90.0
_cell_angle_beta                  90.0
_cell_angle_gamma                 90.0
loop_
_atom_site_label
_atom_site_type_symbol
_atom_site_fract_x
_atom_site_fract_y
_atom_site_fract_z
V1    V   0.00000  0.30902  0.19098
V2    V   0.00000  0.30902  0.80902
V3    V   0.00000  0.69098  0.19098
V4    V   0.00000  0.69098  0.80902
V5    V   0.19098  0.00000  0.30902
V6    V   0.19098  0.00000  0.69098
V7    V   0.30902  0.19098  0.00000
V8    V   0.30902  0.80902  0.00000
V9    V   0.69098  0.19098  0.00000
V10   V   0.69098  0.80902  0.00000
V11   V   0.80902  0.00000  0.30902
V12   V   0.80902  0.00000  0.69098
E1    E   0.00000  0.00000  0.30902
E2    E   0.00000  0.00000  0.69098
E3    E   0.00000  0.30902  0.00000
E4    E   0.00000  0.50000  0.19098
E5    E   0.00000  0.50000  0.80902
E6    E   0.00000  0.69098  0.00000
E7    E   0.09549  0.15451  0.25000
E8    E   0.09549  0.15451  0.75000
E9    E   0.09549  0.84549  0.25000
E10   E   0.09549  0.84549  0.75000
E11   E   0.15451  0.25000  0.09549
E12   E   0.15451  0.25000  0.90451
E13   E   0.15451  0.75000  0.09549
E14   E   0.15451  0.75000  0.90451
E15   E   0.19098  0.00000  0.50000
E16   E   0.25000  0.09549  0.15451
E17   E   0.25000  0.09549  0.84549
E18   E   0.25000  0.90451  0.15451
E19   E   0.25000  0.90451  0.84549
E20   E   0.30902  0.00000  0.00000
E21   E   0.50000  0.19098  0.00000
E22   E   0.50000  0.80902  0.00000
E23   E   0.69098  0.00000  0.00000
E24   E   0.75000  0.09549  0.15451
E25   E   0.75000  0.09549  0.84549
E26   E   0.75000  0.90451  0.15451
E27   E   0.75000  0.90451  0.84549
E28   E   0.80902  0.00000  0.50000
E29   E   0.84549  0.25000  0.09549
E30   E   0.84549  0.25000  0.90451
E31   E   0.84549  0.75000  0.09549
E32   E   0.84549  0.75000  0.90451
E33   E   0.90451  0.15451  0.25000
E34   E   0.90451  0.15451  0.75000
E35   E   0.90451  0.84549  0.25000
E36   E   0.90451  0.84549  0.75000
loop_
