data_snl_I41/amd:2  hall_number: 427, V_con: 6
_audit_creation_date              2025-03-06
_audit_creation_method            'MOFbuilder_1.0'
_symmetry_space_group_name_H-M    'P1'
_symmetry_Int_Tables_number       1
_symmetry_cell_setting            triclinic
loop_
_symmetry_equiv_pos_as_xyz
  x,y,z
_cell_length_a                    39.3648
_cell_length_b                    39.3648
_cell_length_c                    10.0
_cell_angle_alpha                 90.0
_cell_angle_beta                  90.0
_cell_angle_gamma                 90.0
loop_
_atom_site_label
_atom_site_type_symbol
_atom_site_fract_x
_atom_site_fract_y
_atom_site_fract_z
V1    V   0.12702  0.12298  0.87500
V2    V   0.12702  0.37702  0.87500
V3    V   0.12702  0.62298  0.12500
V4    V   0.12702  0.87702  0.12500
V5    V   0.12702  0.12298  0.87500
V6    V   0.12702  0.37702  0.87500
V7    V   0.12702  0.62298  0.12500
V8    V   0.12702  0.87702  0.12500
V9    V   0.37298  0.12298  0.62500
V10   V   0.37298  0.37702  0.62500
V11   V   0.37298  0.62298  0.37500
V12   V   0.37298  0.87702  0.37500
V13   V   0.37298  0.12298  0.62500
V14   V   0.37298  0.37702  0.62500
V15   V   0.37298  0.62298  0.37500
V16   V   0.37298  0.87702  0.37500
V17   V   0.62702  0.12298  0.62500
V18   V   0.62702  0.12298  0.62500
V19   V   0.62702  0.37702  0.62500
V20   V   0.62702  0.62298  0.37500
V21   V   0.62702  0.87702  0.37500
V22   V   0.87298  0.12298  0.87500
V23   V   0.87298  0.12298  0.87500
V24   V   0.87298  0.37702  0.87500
V25   V   0.87298  0.62298  0.12500
V26   V   0.87298  0.87702  0.12500
E1    E   0.00000  0.12298  0.87500
E2    E   0.00000  0.37702  0.87500
E3    E   0.00000  0.62298  0.12500
E4    E   0.00000  0.87702  0.12500
E5    E   0.12702  0.00000  0.00000
E6    E   0.12702  0.12298  0.37500
E7    E   0.12702  0.25000  0.87500
E8    E   0.12702  0.37702  0.37500
E9    E   0.12702  0.50000  0.00000
E10   E   0.12702  0.62298  0.62500
E11   E   0.12702  0.75000  0.12500
E12   E   0.12702  0.87702  0.62500
E13   E   0.12702  0.12298  0.37500
E14   E   0.12702  0.37702  0.37500
E15   E   0.12702  0.62298  0.62500
E16   E   0.12702  0.87702  0.62500
E17   E   0.25000  0.12298  0.75000
E18   E   0.25000  0.37702  0.75000
E19   E   0.25000  0.62298  0.25000
E20   E   0.25000  0.87702  0.25000
E21   E   0.37298  0.00000  0.50000
E22   E   0.37298  0.12298  0.12500
E23   E   0.37298  0.25000  0.62500
E24   E   0.37298  0.37702  0.12500
E25   E   0.37298  0.50000  0.50000
E26   E   0.37298  0.62298  0.87500
E27   E   0.37298  0.75000  0.37500
E28   E   0.37298  0.87702  0.87500
E29   E   0.37298  0.12298  0.12500
E30   E   0.37298  0.37702  0.12500
E31   E   0.37298  0.62298  0.87500
E32   E   0.37298  0.87702  0.87500
E33   E   0.50000  0.12298  0.62500
E34   E   0.50000  0.37702  0.62500
E35   E   0.50000  0.62298  0.37500
E36   E   0.50000  0.87702  0.37500
E37   E   0.62702  0.00000  0.50000
E38   E   0.62702  0.12298  0.12500
E39   E   0.62702  0.12298  0.12500
E40   E   0.62702  0.25000  0.62500
E41   E   0.62702  0.37702  0.12500
E42   E   0.62702  0.50000  0.50000
E43   E   0.62702  0.62298  0.87500
E44   E   0.62702  0.75000  0.37500
E45   E   0.62702  0.87702  0.87500
E46   E   0.75000  0.12298  0.75000
E47   E   0.75000  0.37702  0.75000
E48   E   0.75000  0.62298  0.25000
E49   E   0.75000  0.87702  0.25000
E50   E   0.87298  0.00000  0.00000
E51   E   0.87298  0.12298  0.37500
E52   E   0.87298  0.12298  0.37500
E53   E   0.87298  0.25000  0.87500
E54   E   0.87298  0.37702  0.37500
E55   E   0.87298  0.50000  0.00000
E56   E   0.87298  0.62298  0.62500
E57   E   0.87298  0.75000  0.12500
E58   E   0.87298  0.87702  0.62500
loop_
