data_snv-x*_P432  hall_number: 503, V_con: 7
_audit_creation_date              2025-03-06
_audit_creation_method            'MOFbuilder_1.0'
_symmetry_space_group_name_H-M    'P1'
_symmetry_Int_Tables_number       1
_symmetry_cell_setting            triclinic
loop_
_symmetry_equiv_pos_as_xyz
  x,y,z
_cell_length_a                    30.485799999999998
_cell_length_b                    30.485799999999998
_cell_length_c                    30.485799999999998
_cell_angle_alpha                 90.0
_cell_angle_beta                  90.0
_cell_angle_gamma                 90.0
loop_
_atom_site_label
_atom_site_type_symbol
_atom_site_fract_x
_atom_site_fract_y
_atom_site_fract_z
V1    V   0.11384  0.16663  0.37367
V2    V   0.11384  0.37367  0.83337
V3    V   0.11384  0.62633  0.16663
V4    V   0.11384  0.83337  0.62633
V5    V   0.16663  0.11384  0.62633
V6    V   0.16663  0.37367  0.11384
V7    V   0.16663  0.62633  0.88616
V8    V   0.16663  0.88616  0.37367
V9    V   0.37367  0.11384  0.16663
V10   V   0.37367  0.16663  0.88616
V11   V   0.37367  0.83337  0.11384
V12   V   0.37367  0.88616  0.83337
V13   V   0.62633  0.11384  0.83337
V14   V   0.62633  0.16663  0.11384
V15   V   0.62633  0.83337  0.88616
V16   V   0.62633  0.88616  0.16663
V17   V   0.83337  0.11384  0.37367
V18   V   0.83337  0.37367  0.88616
V19   V   0.83337  0.62633  0.11384
V20   V   0.83337  0.88616  0.62633
V21   V   0.88616  0.16663  0.62633
V22   V   0.88616  0.37367  0.16663
V23   V   0.88616  0.62633  0.83337
V24   V   0.88616  0.83337  0.37367
E1    E   0.00000  0.11384  0.50000
E2    E   0.00000  0.27015  0.27015
E3    E   0.00000  0.27015  0.72985
E4    E   0.00000  0.50000  0.11384
E5    E   0.00000  0.50000  0.88616
E6    E   0.00000  0.72985  0.27015
E7    E   0.00000  0.72985  0.72985
E8    E   0.00000  0.88616  0.50000
E9    E   0.02639  0.14023  0.62633
E10   E   0.02639  0.37367  0.14023
E11   E   0.02639  0.62633  0.85977
E12   E   0.02639  0.85977  0.37367
E13   E   0.11384  0.00000  0.50000
E14   E   0.11384  0.50000  0.00000
E15   E   0.14023  0.02639  0.37367
E16   E   0.14023  0.14023  0.50000
E17   E   0.14023  0.24376  0.72985
E18   E   0.14023  0.27015  0.24376
E19   E   0.14023  0.37367  0.97361
E20   E   0.14023  0.50000  0.14023
E21   E   0.14023  0.50000  0.85977
E22   E   0.14023  0.62633  0.02639
E23   E   0.14023  0.72985  0.75624
E24   E   0.14023  0.75624  0.27015
E25   E   0.14023  0.85977  0.50000
E26   E   0.14023  0.97361  0.62633
E27   E   0.24376  0.14023  0.27015
E28   E   0.24376  0.27015  0.85977
E29   E   0.24376  0.72985  0.14023
E30   E   0.24376  0.85977  0.72985
E31   E   0.27015  0.00000  0.27015
E32   E   0.27015  0.00000  0.72985
E33   E   0.27015  0.14023  0.75624
E34   E   0.27015  0.24376  0.14023
E35   E   0.27015  0.27015  0.00000
E36   E   0.27015  0.72985  0.00000
E37   E   0.27015  0.75624  0.85977
E38   E   0.27015  0.85977  0.24376
E39   E   0.37367  0.02639  0.85977
E40   E   0.37367  0.14023  0.02639
E41   E   0.37367  0.85977  0.97361
E42   E   0.37367  0.97361  0.14023
E43   E   0.50000  0.00000  0.11384
E44   E   0.50000  0.00000  0.88616
E45   E   0.50000  0.11384  0.00000
E46   E   0.50000  0.14023  0.14023
E47   E   0.50000  0.14023  0.85977
E48   E   0.50000  0.85977  0.14023
E49   E   0.50000  0.85977  0.85977
E50   E   0.50000  0.88616  0.00000
E51   E   0.62633  0.02639  0.14023
E52   E   0.62633  0.14023  0.97361
E53   E   0.62633  0.85977  0.02639
E54   E   0.62633  0.97361  0.85977
E55   E   0.72985  0.00000  0.27015
E56   E   0.72985  0.00000  0.72985
E57   E   0.72985  0.14023  0.24376
E58   E   0.72985  0.24376  0.85977
E59   E   0.72985  0.27015  0.00000
E60   E   0.72985  0.72985  0.00000
E61   E   0.72985  0.75624  0.14023
E62   E   0.72985  0.85977  0.75624
E63   E   0.75624  0.14023  0.72985
E64   E   0.75624  0.27015  0.14023
E65   E   0.75624  0.72985  0.85977
E66   E   0.75624  0.85977  0.27015
E67   E   0.85977  0.02639  0.62633
E68   E   0.85977  0.14023  0.50000
E69   E   0.85977  0.24376  0.27015
E70   E   0.85977  0.27015  0.75624
E71   E   0.85977  0.37367  0.02639
E72   E   0.85977  0.50000  0.14023
E73   E   0.85977  0.50000  0.85977
E74   E   0.85977  0.62633  0.97361
E75   E   0.85977  0.72985  0.24376
E76   E   0.85977  0.75624  0.72985
E77   E   0.85977  0.85977  0.50000
E78   E   0.85977  0.97361  0.37367
E79   E   0.88616  0.00000  0.50000
E80   E   0.88616  0.50000  0.00000
E81   E   0.97361  0.14023  0.37367
E82   E   0.97361  0.37367  0.85977
E83   E   0.97361  0.62633  0.14023
E84   E   0.97361  0.85977  0.62633
loop_
