data_sod-e_Im-3m  hall_number: 529, V_con: 6
_audit_creation_date              2025-03-06
_audit_creation_method            'MOFbuilder_1.0'
_symmetry_space_group_name_H-M    'P1'
_symmetry_Int_Tables_number       1
_symmetry_cell_setting            triclinic
loop_
_symmetry_equiv_pos_as_xyz
  x,y,z
_cell_length_a                    34.142199999999995
_cell_length_b                    34.142199999999995
_cell_length_c                    34.142199999999995
_cell_angle_alpha                 90.0
_cell_angle_beta                  90.0
_cell_angle_gamma                 90.0
loop_
_atom_site_label
_atom_site_type_symbol
_atom_site_fract_x
_atom_site_fract_y
_atom_site_fract_z
V1    V   0.00000  0.35355  0.35355
V2    V   0.00000  0.35355  0.64645
V3    V   0.00000  0.64645  0.35355
V4    V   0.00000  0.64645  0.64645
V5    V   0.14645  0.14645  0.50000
V6    V   0.14645  0.50000  0.14645
V7    V   0.14645  0.50000  0.85355
V8    V   0.14645  0.85355  0.50000
V9    V   0.35355  0.00000  0.35355
V10   V   0.35355  0.00000  0.64645
V11   V   0.35355  0.35355  0.00000
V12   V   0.35355  0.64645  0.00000
V13   V   0.50000  0.14645  0.14645
V14   V   0.50000  0.14645  0.85355
V15   V   0.50000  0.85355  0.14645
V16   V   0.50000  0.85355  0.85355
V17   V   0.64645  0.00000  0.35355
V18   V   0.64645  0.00000  0.64645
V19   V   0.64645  0.35355  0.00000
V20   V   0.64645  0.64645  0.00000
V21   V   0.85355  0.14645  0.50000
V22   V   0.85355  0.50000  0.14645
V23   V   0.85355  0.50000  0.85355
V24   V   0.85355  0.85355  0.50000
E1    E   0.00000  0.14645  0.50000
E2    E   0.00000  0.35355  0.50000
E3    E   0.00000  0.50000  0.14645
E4    E   0.00000  0.50000  0.35355
E5    E   0.00000  0.50000  0.64645
E6    E   0.00000  0.50000  0.85355
E7    E   0.00000  0.64645  0.50000
E8    E   0.00000  0.85355  0.50000
E9    E   0.07322  0.25000  0.42678
E10   E   0.07322  0.25000  0.57322
E11   E   0.07322  0.42678  0.25000
E12   E   0.07322  0.42678  0.75000
E13   E   0.07322  0.57322  0.25000
E14   E   0.07322  0.57322  0.75000
E15   E   0.07322  0.75000  0.42678
E16   E   0.07322  0.75000  0.57322
E17   E   0.07322  0.25000  0.42678
E18   E   0.07322  0.25000  0.57322
E19   E   0.07322  0.42678  0.25000
E20   E   0.07322  0.42678  0.75000
E21   E   0.07322  0.57322  0.25000
E22   E   0.07322  0.57322  0.75000
E23   E   0.07322  0.75000  0.42678
E24   E   0.07322  0.75000  0.57322
E25   E   0.14645  0.00000  0.50000
E26   E   0.14645  0.50000  0.00000
E27   E   0.25000  0.07322  0.42678
E28   E   0.25000  0.07322  0.57322
E29   E   0.25000  0.07322  0.42678
E30   E   0.25000  0.07322  0.57322
E31   E   0.25000  0.42678  0.07322
E32   E   0.25000  0.42678  0.07322
E33   E   0.25000  0.42678  0.92678
E34   E   0.25000  0.42678  0.92678
E35   E   0.25000  0.57322  0.07322
E36   E   0.25000  0.57322  0.92678
E37   E   0.25000  0.57322  0.07322
E38   E   0.25000  0.57322  0.92678
E39   E   0.25000  0.92678  0.42678
E40   E   0.25000  0.92678  0.57322
E41   E   0.25000  0.92678  0.42678
E42   E   0.25000  0.92678  0.57322
E43   E   0.35355  0.00000  0.50000
E44   E   0.35355  0.50000  0.00000
E45   E   0.42678  0.07322  0.25000
E46   E   0.42678  0.07322  0.75000
E47   E   0.42678  0.07322  0.25000
E48   E   0.42678  0.07322  0.75000
E49   E   0.42678  0.25000  0.07322
E50   E   0.42678  0.25000  0.07322
E51   E   0.42678  0.25000  0.92678
E52   E   0.42678  0.25000  0.92678
E53   E   0.42678  0.75000  0.07322
E54   E   0.42678  0.75000  0.07322
E55   E   0.42678  0.75000  0.92678
E56   E   0.42678  0.75000  0.92678
E57   E   0.42678  0.92678  0.25000
E58   E   0.42678  0.92678  0.75000
E59   E   0.42678  0.92678  0.25000
E60   E   0.42678  0.92678  0.75000
E61   E   0.50000  0.00000  0.14645
E62   E   0.50000  0.00000  0.35355
E63   E   0.50000  0.00000  0.64645
E64   E   0.50000  0.00000  0.85355
E65   E   0.50000  0.14645  0.00000
E66   E   0.50000  0.35355  0.00000
E67   E   0.50000  0.64645  0.00000
E68   E   0.50000  0.85355  0.00000
E69   E   0.57322  0.07322  0.25000
E70   E   0.57322  0.07322  0.75000
E71   E   0.57322  0.25000  0.07322
E72   E   0.57322  0.25000  0.92678
E73   E   0.57322  0.75000  0.07322
E74   E   0.57322  0.75000  0.92678
E75   E   0.57322  0.92678  0.25000
E76   E   0.57322  0.92678  0.75000
E77   E   0.57322  0.07322  0.25000
E78   E   0.57322  0.07322  0.75000
E79   E   0.57322  0.25000  0.07322
E80   E   0.57322  0.25000  0.92678
E81   E   0.57322  0.75000  0.07322
E82   E   0.57322  0.75000  0.92678
E83   E   0.57322  0.92678  0.25000
E84   E   0.57322  0.92678  0.75000
E85   E   0.64645  0.00000  0.50000
E86   E   0.64645  0.50000  0.00000
E87   E   0.75000  0.07322  0.42678
E88   E   0.75000  0.07322  0.57322
E89   E   0.75000  0.07322  0.42678
E90   E   0.75000  0.07322  0.57322
E91   E   0.75000  0.42678  0.07322
E92   E   0.75000  0.42678  0.07322
E93   E   0.75000  0.42678  0.92678
E94   E   0.75000  0.42678  0.92678
E95   E   0.75000  0.57322  0.07322
E96   E   0.75000  0.57322  0.92678
E97   E   0.75000  0.57322  0.07322
E98   E   0.75000  0.57322  0.92678
E99   E   0.75000  0.92678  0.42678
E100  E   0.75000  0.92678  0.57322
E101  E   0.75000  0.92678  0.42678
E102  E   0.75000  0.92678  0.57322
E103  E   0.85355  0.00000  0.50000
E104  E   0.85355  0.50000  0.00000
E105  E   0.92678  0.25000  0.42678
E106  E   0.92678  0.25000  0.57322
E107  E   0.92678  0.42678  0.25000
E108  E   0.92678  0.42678  0.75000
E109  E   0.92678  0.57322  0.25000
E110  E   0.92678  0.57322  0.75000
E111  E   0.92678  0.75000  0.42678
E112  E   0.92678  0.75000  0.57322
E113  E   0.92678  0.25000  0.42678
E114  E   0.92678  0.25000  0.57322
E115  E   0.92678  0.42678  0.25000
E116  E   0.92678  0.42678  0.75000
E117  E   0.92678  0.57322  0.25000
E118  E   0.92678  0.57322  0.75000
E119  E   0.92678  0.75000  0.42678
E120  E   0.92678  0.75000  0.57322
loop_
