data_sod-f_Im-3m  hall_number: 529, V_con: 3
_audit_creation_date              2025-03-06
_audit_creation_method            'MOFbuilder_1.0'
_symmetry_space_group_name_H-M    'P1'
_symmetry_Int_Tables_number       1
_symmetry_cell_setting            triclinic
loop_
_symmetry_equiv_pos_as_xyz
  x,y,z
_cell_length_a                    62.9251
_cell_length_b                    62.9251
_cell_length_c                    62.9251
_cell_angle_alpha                 90.0
_cell_angle_beta                  90.0
_cell_angle_gamma                 90.0
loop_
_atom_site_label
_atom_site_type_symbol
_atom_site_fract_x
_atom_site_fract_y
_atom_site_fract_z
V1    V   0.00000  0.29566  0.40803
V2    V   0.00000  0.29566  0.59197
V3    V   0.00000  0.40803  0.29566
V4    V   0.00000  0.40803  0.70434
V5    V   0.00000  0.59197  0.29566
V6    V   0.00000  0.59197  0.70434
V7    V   0.00000  0.70434  0.40803
V8    V   0.00000  0.70434  0.59197
V9    V   0.09197  0.20434  0.50000
V10   V   0.09197  0.50000  0.20434
V11   V   0.09197  0.50000  0.79566
V12   V   0.09197  0.79566  0.50000
V13   V   0.20434  0.09197  0.50000
V14   V   0.20434  0.50000  0.09197
V15   V   0.20434  0.50000  0.90803
V16   V   0.20434  0.90803  0.50000
V17   V   0.29566  0.00000  0.40803
V18   V   0.29566  0.00000  0.59197
V19   V   0.29566  0.40803  0.00000
V20   V   0.29566  0.59197  0.00000
V21   V   0.40803  0.00000  0.29566
V22   V   0.40803  0.00000  0.70434
V23   V   0.40803  0.29566  0.00000
V24   V   0.40803  0.70434  0.00000
V25   V   0.50000  0.09197  0.20434
V26   V   0.50000  0.09197  0.79566
V27   V   0.50000  0.20434  0.09197
V28   V   0.50000  0.20434  0.90803
V29   V   0.50000  0.79566  0.09197
V30   V   0.50000  0.79566  0.90803
V31   V   0.50000  0.90803  0.20434
V32   V   0.50000  0.90803  0.79566
V33   V   0.59197  0.00000  0.29566
V34   V   0.59197  0.00000  0.70434
V35   V   0.59197  0.29566  0.00000
V36   V   0.59197  0.70434  0.00000
V37   V   0.70434  0.00000  0.40803
V38   V   0.70434  0.00000  0.59197
V39   V   0.70434  0.40803  0.00000
V40   V   0.70434  0.59197  0.00000
V41   V   0.79566  0.09197  0.50000
V42   V   0.79566  0.50000  0.09197
V43   V   0.79566  0.50000  0.90803
V44   V   0.79566  0.90803  0.50000
V45   V   0.90803  0.20434  0.50000
V46   V   0.90803  0.50000  0.20434
V47   V   0.90803  0.50000  0.79566
V48   V   0.90803  0.79566  0.50000
E1    E   0.00000  0.35184  0.35184
E2    E   0.00000  0.35184  0.64816
E3    E   0.00000  0.64816  0.35184
E4    E   0.00000  0.64816  0.64816
E5    E   0.04599  0.25000  0.45401
E6    E   0.04599  0.25000  0.54599
E7    E   0.04599  0.45401  0.25000
E8    E   0.04599  0.45401  0.75000
E9    E   0.04599  0.54599  0.25000
E10   E   0.04599  0.54599  0.75000
E11   E   0.04599  0.75000  0.45401
E12   E   0.04599  0.75000  0.54599
E13   E   0.04599  0.25000  0.45401
E14   E   0.04599  0.25000  0.54599
E15   E   0.04599  0.45401  0.25000
E16   E   0.04599  0.45401  0.75000
E17   E   0.04599  0.54599  0.25000
E18   E   0.04599  0.54599  0.75000
E19   E   0.04599  0.75000  0.45401
E20   E   0.04599  0.75000  0.54599
E21   E   0.14816  0.14816  0.50000
E22   E   0.14816  0.50000  0.14816
E23   E   0.14816  0.50000  0.85184
E24   E   0.14816  0.85184  0.50000
E25   E   0.25000  0.04599  0.45401
E26   E   0.25000  0.04599  0.54599
E27   E   0.25000  0.04599  0.45401
E28   E   0.25000  0.04599  0.54599
E29   E   0.25000  0.45401  0.04599
E30   E   0.25000  0.45401  0.04599
E31   E   0.25000  0.45401  0.95401
E32   E   0.25000  0.54599  0.04599
E33   E   0.25000  0.54599  0.04599
E34   E   0.25000  0.54599  0.95401
E35   E   0.25000  0.95401  0.45401
E36   E   0.25000  0.95401  0.54599
E37   E   0.35184  0.00000  0.35184
E38   E   0.35184  0.00000  0.64816
E39   E   0.35184  0.35184  0.00000
E40   E   0.35184  0.64816  0.00000
E41   E   0.45401  0.04599  0.25000
E42   E   0.45401  0.04599  0.75000
E43   E   0.45401  0.04599  0.25000
E44   E   0.45401  0.04599  0.75000
E45   E   0.45401  0.25000  0.04599
E46   E   0.45401  0.25000  0.04599
E47   E   0.45401  0.25000  0.95401
E48   E   0.45401  0.75000  0.04599
E49   E   0.45401  0.75000  0.04599
E50   E   0.45401  0.75000  0.95401
E51   E   0.45401  0.95401  0.25000
E52   E   0.45401  0.95401  0.75000
E53   E   0.50000  0.14816  0.14816
E54   E   0.50000  0.14816  0.85184
E55   E   0.50000  0.85184  0.14816
E56   E   0.50000  0.85184  0.85184
E57   E   0.54599  0.04599  0.25000
E58   E   0.54599  0.04599  0.75000
E59   E   0.54599  0.04599  0.25000
E60   E   0.54599  0.04599  0.75000
E61   E   0.54599  0.25000  0.04599
E62   E   0.54599  0.25000  0.04599
E63   E   0.54599  0.25000  0.95401
E64   E   0.54599  0.75000  0.04599
E65   E   0.54599  0.75000  0.04599
E66   E   0.54599  0.75000  0.95401
E67   E   0.54599  0.95401  0.25000
E68   E   0.54599  0.95401  0.75000
E69   E   0.64816  0.00000  0.35184
E70   E   0.64816  0.00000  0.64816
E71   E   0.64816  0.35184  0.00000
E72   E   0.64816  0.64816  0.00000
E73   E   0.75000  0.04599  0.45401
E74   E   0.75000  0.04599  0.54599
E75   E   0.75000  0.04599  0.45401
E76   E   0.75000  0.04599  0.54599
E77   E   0.75000  0.45401  0.04599
E78   E   0.75000  0.45401  0.04599
E79   E   0.75000  0.45401  0.95401
E80   E   0.75000  0.54599  0.04599
E81   E   0.75000  0.54599  0.04599
E82   E   0.75000  0.54599  0.95401
E83   E   0.75000  0.95401  0.45401
E84   E   0.75000  0.95401  0.54599
E85   E   0.85184  0.14816  0.50000
E86   E   0.85184  0.50000  0.14816
E87   E   0.85184  0.50000  0.85184
E88   E   0.85184  0.85184  0.50000
E89   E   0.95401  0.25000  0.45401
E90   E   0.95401  0.25000  0.54599
E91   E   0.95401  0.45401  0.25000
E92   E   0.95401  0.45401  0.75000
E93   E   0.95401  0.54599  0.25000
E94   E   0.95401  0.54599  0.75000
E95   E   0.95401  0.75000  0.45401
E96   E   0.95401  0.75000  0.54599
loop_
