data_sod-h_Pn-3m:2  hall_number: 522, V_con: 3
_audit_creation_date              2025-03-06
_audit_creation_method            'MOFbuilder_1.0'
_symmetry_space_group_name_H-M    'P1'
_symmetry_Int_Tables_number       1
_symmetry_cell_setting            triclinic
loop_
_symmetry_equiv_pos_as_xyz
  x,y,z
_cell_length_a                    65.23939999999999
_cell_length_b                    65.23939999999999
_cell_length_c                    65.23939999999999
_cell_angle_alpha                 90.0
_cell_angle_beta                  90.0
_cell_angle_gamma                 90.0
loop_
_atom_site_label
_atom_site_type_symbol
_atom_site_fract_x
_atom_site_fract_y
_atom_site_fract_z
V1    V   0.07083  0.17921  0.72062
V2    V   0.07083  0.32079  0.77938
V3    V   0.07083  0.72062  0.17921
V4    V   0.07083  0.77938  0.32079
V5    V   0.17921  0.07083  0.72062
V6    V   0.17921  0.42917  0.77938
V7    V   0.17921  0.72062  0.07083
V8    V   0.17921  0.77938  0.42917
V9    V   0.22062  0.57083  0.82079
V10   V   0.22062  0.67921  0.92917
V11   V   0.22062  0.82079  0.57083
V12   V   0.22062  0.92917  0.67921
V13   V   0.27938  0.57083  0.67921
V14   V   0.27938  0.67921  0.57083
V15   V   0.27938  0.82079  0.92917
V16   V   0.27938  0.92917  0.82079
V17   V   0.32079  0.07083  0.77938
V18   V   0.32079  0.42917  0.72062
V19   V   0.32079  0.72062  0.42917
V20   V   0.32079  0.77938  0.07083
V21   V   0.42917  0.17921  0.77938
V22   V   0.42917  0.32079  0.72062
V23   V   0.42917  0.72062  0.32079
V24   V   0.42917  0.77938  0.17921
V25   V   0.57083  0.22062  0.82079
V26   V   0.57083  0.27938  0.67921
V27   V   0.57083  0.67921  0.27938
V28   V   0.57083  0.82079  0.22062
V29   V   0.67921  0.22062  0.92917
V30   V   0.67921  0.27938  0.57083
V31   V   0.67921  0.57083  0.27938
V32   V   0.67921  0.92917  0.22062
V33   V   0.72062  0.07083  0.17921
V34   V   0.72062  0.17921  0.07083
V35   V   0.72062  0.32079  0.42917
V36   V   0.72062  0.42917  0.32079
V37   V   0.77938  0.07083  0.32079
V38   V   0.77938  0.17921  0.42917
V39   V   0.77938  0.32079  0.07083
V40   V   0.77938  0.42917  0.17921
V41   V   0.82079  0.22062  0.57083
V42   V   0.82079  0.27938  0.92917
V43   V   0.82079  0.57083  0.22062
V44   V   0.82079  0.92917  0.27938
V45   V   0.92917  0.22062  0.67921
V46   V   0.92917  0.27938  0.82079
V47   V   0.92917  0.67921  0.22062
V48   V   0.92917  0.82079  0.27938
E1    E   0.00000  0.19992  0.69992
E2    E   0.00000  0.19992  0.69992
E3    E   0.00000  0.30008  0.80008
E4    E   0.00000  0.69992  0.19992
E5    E   0.00000  0.69992  0.19992
E6    E   0.00000  0.80008  0.30008
E7    E   0.07083  0.25000  0.75000
E8    E   0.07083  0.75000  0.25000
E9    E   0.12502  0.12502  0.72062
E10   E   0.12502  0.37498  0.77938
E11   E   0.12502  0.72062  0.12502
E12   E   0.12502  0.77938  0.37498
E13   E   0.19992  0.00000  0.69992
E14   E   0.19992  0.50000  0.80008
E15   E   0.19992  0.69992  0.00000
E16   E   0.19992  0.80008  0.50000
E17   E   0.19992  0.00000  0.69992
E18   E   0.19992  0.50000  0.80008
E19   E   0.19992  0.69992  0.00000
E20   E   0.19992  0.80008  0.50000
E21   E   0.22062  0.62502  0.87498
E22   E   0.22062  0.87498  0.62502
E23   E   0.25000  0.07083  0.75000
E24   E   0.25000  0.42917  0.75000
E25   E   0.25000  0.57083  0.75000
E26   E   0.25000  0.75000  0.07083
E27   E   0.25000  0.75000  0.42917
E28   E   0.25000  0.75000  0.57083
E29   E   0.25000  0.75000  0.92917
E30   E   0.25000  0.92917  0.75000
E31   E   0.27938  0.62502  0.62502
E32   E   0.27938  0.87498  0.87498
E33   E   0.30008  0.00000  0.80008
E34   E   0.30008  0.50000  0.69992
E35   E   0.30008  0.69992  0.50000
E36   E   0.30008  0.80008  0.00000
E37   E   0.37498  0.12502  0.77938
E38   E   0.37498  0.37498  0.72062
E39   E   0.37498  0.72062  0.37498
E40   E   0.37498  0.77938  0.12502
E41   E   0.42917  0.25000  0.75000
E42   E   0.42917  0.75000  0.25000
E43   E   0.50000  0.19992  0.80008
E44   E   0.50000  0.19992  0.80008
E45   E   0.50000  0.30008  0.69992
E46   E   0.50000  0.69992  0.30008
E47   E   0.50000  0.80008  0.19992
E48   E   0.50000  0.80008  0.19992
E49   E   0.57083  0.25000  0.75000
E50   E   0.57083  0.75000  0.25000
E51   E   0.62502  0.22062  0.87498
E52   E   0.62502  0.27938  0.62502
E53   E   0.62502  0.62502  0.27938
E54   E   0.62502  0.87498  0.22062
E55   E   0.69992  0.00000  0.19992
E56   E   0.69992  0.00000  0.19992
E57   E   0.69992  0.19992  0.00000
E58   E   0.69992  0.19992  0.00000
E59   E   0.69992  0.30008  0.50000
E60   E   0.69992  0.50000  0.30008
E61   E   0.72062  0.12502  0.12502
E62   E   0.72062  0.37498  0.37498
E63   E   0.75000  0.07083  0.25000
E64   E   0.75000  0.25000  0.07083
E65   E   0.75000  0.25000  0.42917
E66   E   0.75000  0.25000  0.57083
E67   E   0.75000  0.25000  0.92917
E68   E   0.75000  0.42917  0.25000
E69   E   0.75000  0.57083  0.25000
E70   E   0.75000  0.92917  0.25000
E71   E   0.77938  0.12502  0.37498
E72   E   0.77938  0.37498  0.12502
E73   E   0.80008  0.00000  0.30008
E74   E   0.80008  0.19992  0.50000
E75   E   0.80008  0.19992  0.50000
E76   E   0.80008  0.30008  0.00000
E77   E   0.80008  0.50000  0.19992
E78   E   0.80008  0.50000  0.19992
E79   E   0.87498  0.22062  0.62502
E80   E   0.87498  0.27938  0.87498
E81   E   0.87498  0.62502  0.22062
E82   E   0.87498  0.87498  0.27938
E83   E   0.92917  0.25000  0.75000
E84   E   0.92917  0.75000  0.25000
loop_
