data_sol_Pbcn  hall_number: 284, V_con: 6
_audit_creation_date              2025-03-06
_audit_creation_method            'MOFbuilder_1.0'
_symmetry_space_group_name_H-M    'P1'
_symmetry_Int_Tables_number       1
_symmetry_cell_setting            triclinic
loop_
_symmetry_equiv_pos_as_xyz
  x,y,z
_cell_length_a                    24.2672
_cell_length_b                    18.1509
_cell_length_c                    16.7933
_cell_angle_alpha                 90.0
_cell_angle_beta                  90.0
_cell_angle_gamma                 90.0
loop_
_atom_site_label
_atom_site_type_symbol
_atom_site_fract_x
_atom_site_fract_y
_atom_site_fract_z
V1    V   0.16347  0.15514  0.06877
V2    V   0.16347  0.84486  0.56877
V3    V   0.33653  0.34486  0.56877
V4    V   0.33653  0.65514  0.06877
V5    V   0.66347  0.34486  0.93123
V6    V   0.66347  0.65514  0.43123
V7    V   0.83653  0.15514  0.43123
V8    V   0.83653  0.84486  0.93123
E1    E   0.00000  0.00000  0.00000
E2    E   0.00000  0.00000  0.50000
E3    E   0.00000  0.15514  0.25000
E4    E   0.00000  0.84486  0.75000
E5    E   0.25000  0.09486  0.56877
E6    E   0.25000  0.25000  0.31877
E7    E   0.25000  0.25000  0.81877
E8    E   0.25000  0.40514  0.06877
E9    E   0.25000  0.59486  0.56877
E10   E   0.25000  0.75000  0.31877
E11   E   0.25000  0.75000  0.81877
E12   E   0.25000  0.90514  0.06877
E13   E   0.50000  0.34486  0.75000
E14   E   0.50000  0.50000  0.00000
E15   E   0.50000  0.50000  0.50000
E16   E   0.50000  0.65514  0.25000
E17   E   0.75000  0.09486  0.93123
E18   E   0.75000  0.25000  0.18123
E19   E   0.75000  0.25000  0.68123
E20   E   0.75000  0.40514  0.43123
E21   E   0.75000  0.59486  0.93123
E22   E   0.75000  0.75000  0.18123
E23   E   0.75000  0.75000  0.68123
E24   E   0.75000  0.90514  0.43123
loop_
