data_som_Fddd:2  hall_number: 336, V_con: 6
_audit_creation_date              2025-03-06
_audit_creation_method            'MOFbuilder_1.0'
_symmetry_space_group_name_H-M    'P1'
_symmetry_Int_Tables_number       1
_symmetry_cell_setting            triclinic
loop_
_symmetry_equiv_pos_as_xyz
  x,y,z
_cell_length_a                    10.0
_cell_length_b                    38.6689
_cell_length_c                    79.1542
_cell_angle_alpha                 90.0
_cell_angle_beta                  90.0
_cell_angle_gamma                 90.0
loop_
_atom_site_label
_atom_site_type_symbol
_atom_site_fract_x
_atom_site_fract_y
_atom_site_fract_z
V1    V   0.02630  0.25176  0.68692
V2    V   0.02630  0.49824  0.06308
V3    V   0.02630  0.75176  0.18692
V4    V   0.02630  0.99824  0.56308
V5    V   0.22370  0.25176  0.56308
V6    V   0.22370  0.49824  0.18692
V7    V   0.22370  0.75176  0.06308
V8    V   0.22370  0.99824  0.68692
V9    V   0.27630  0.00176  0.81308
V10   V   0.27630  0.24824  0.43692
V11   V   0.27630  0.50176  0.31308
V12   V   0.27630  0.74824  0.93692
V13   V   0.47370  0.00176  0.93692
V14   V   0.47370  0.24824  0.31308
V15   V   0.47370  0.50176  0.43692
V16   V   0.47370  0.74824  0.81308
V17   V   0.52630  0.25176  0.18692
V18   V   0.52630  0.49824  0.56308
V19   V   0.52630  0.75176  0.68692
V20   V   0.52630  0.99824  0.06308
V21   V   0.72370  0.25176  0.06308
V22   V   0.72370  0.49824  0.68692
V23   V   0.72370  0.75176  0.56308
V24   V   0.72370  0.99824  0.18692
V25   V   0.77630  0.00176  0.31308
V26   V   0.77630  0.24824  0.93692
V27   V   0.77630  0.50176  0.81308
V28   V   0.77630  0.74824  0.43692
V29   V   0.97370  0.00176  0.43692
V30   V   0.97370  0.24824  0.81308
V31   V   0.97370  0.50176  0.93692
V32   V   0.97370  0.74824  0.31308
E1    E   0.00000  0.00000  0.50000
E2    E   0.00000  0.25000  0.75000
E3    E   0.00000  0.50000  0.00000
E4    E   0.00000  0.75000  0.25000
E5    E   0.02630  0.25176  0.18692
E6    E   0.02630  0.49824  0.56308
E7    E   0.02630  0.75176  0.68692
E8    E   0.02630  0.99824  0.06308
E9    E   0.12500  0.12500  0.43692
E10   E   0.12500  0.12500  0.56308
E11   E   0.12500  0.12500  0.68692
E12   E   0.12500  0.12500  0.81308
E13   E   0.12500  0.25176  0.62500
E14   E   0.12500  0.49824  0.12500
E15   E   0.12500  0.62500  0.06308
E16   E   0.12500  0.62500  0.18692
E17   E   0.12500  0.62500  0.31308
E18   E   0.12500  0.62500  0.93692
E19   E   0.12500  0.75176  0.12500
E20   E   0.12500  0.99824  0.62500
E21   E   0.22370  0.25176  0.06308
E22   E   0.22370  0.49824  0.68692
E23   E   0.22370  0.75176  0.56308
E24   E   0.22370  0.99824  0.18692
E25   E   0.25000  0.00000  0.75000
E26   E   0.25000  0.25000  0.50000
E27   E   0.25000  0.50000  0.25000
E28   E   0.25000  0.75000  0.00000
E29   E   0.27630  0.00176  0.31308
E30   E   0.27630  0.24824  0.93692
E31   E   0.27630  0.50176  0.81308
E32   E   0.27630  0.74824  0.43692
E33   E   0.37500  0.00176  0.87500
E34   E   0.37500  0.24824  0.37500
E35   E   0.37500  0.37500  0.18692
E36   E   0.37500  0.37500  0.31308
E37   E   0.37500  0.37500  0.43692
E38   E   0.37500  0.37500  0.56308
E39   E   0.37500  0.50176  0.37500
E40   E   0.37500  0.74824  0.87500
E41   E   0.37500  0.87500  0.06308
E42   E   0.37500  0.87500  0.68692
E43   E   0.37500  0.87500  0.81308
E44   E   0.37500  0.87500  0.93692
E45   E   0.47370  0.00176  0.43692
E46   E   0.47370  0.24824  0.81308
E47   E   0.47370  0.50176  0.93692
E48   E   0.47370  0.74824  0.31308
E49   E   0.50000  0.00000  0.00000
E50   E   0.50000  0.25000  0.25000
E51   E   0.50000  0.50000  0.50000
E52   E   0.50000  0.75000  0.75000
E53   E   0.52630  0.25176  0.68692
E54   E   0.52630  0.49824  0.06308
E55   E   0.52630  0.75176  0.18692
E56   E   0.52630  0.99824  0.56308
E57   E   0.62500  0.12500  0.06308
E58   E   0.62500  0.12500  0.18692
E59   E   0.62500  0.12500  0.31308
E60   E   0.62500  0.12500  0.93692
E61   E   0.62500  0.25176  0.12500
E62   E   0.62500  0.49824  0.62500
E63   E   0.62500  0.62500  0.43692
E64   E   0.62500  0.62500  0.56308
E65   E   0.62500  0.62500  0.68692
E66   E   0.62500  0.62500  0.81308
E67   E   0.62500  0.75176  0.62500
E68   E   0.62500  0.99824  0.12500
E69   E   0.72370  0.25176  0.56308
E70   E   0.72370  0.49824  0.18692
E71   E   0.72370  0.75176  0.06308
E72   E   0.72370  0.99824  0.68692
E73   E   0.75000  0.00000  0.25000
E74   E   0.75000  0.25000  0.00000
E75   E   0.75000  0.50000  0.75000
E76   E   0.75000  0.75000  0.50000
E77   E   0.77630  0.00176  0.81308
E78   E   0.77630  0.24824  0.43692
E79   E   0.77630  0.50176  0.31308
E80   E   0.77630  0.74824  0.93692
E81   E   0.87500  0.00176  0.37500
E82   E   0.87500  0.24824  0.87500
E83   E   0.87500  0.37500  0.06308
E84   E   0.87500  0.37500  0.68692
E85   E   0.87500  0.37500  0.81308
E86   E   0.87500  0.37500  0.93692
E87   E   0.87500  0.50176  0.87500
E88   E   0.87500  0.74824  0.37500
E89   E   0.87500  0.87500  0.18692
E90   E   0.87500  0.87500  0.31308
E91   E   0.87500  0.87500  0.43692
E92   E   0.87500  0.87500  0.56308
E93   E   0.97370  0.00176  0.93692
E94   E   0.97370  0.24824  0.31308
E95   E   0.97370  0.50176  0.43692
E96   E   0.97370  0.74824  0.81308
loop_
