data_sop_Fddd:2  hall_number: 336, V_con: 7
_audit_creation_date              2025-03-06
_audit_creation_method            'MOFbuilder_1.0'
_symmetry_space_group_name_H-M    'P1'
_symmetry_Int_Tables_number       1
_symmetry_cell_setting            triclinic
loop_
_symmetry_equiv_pos_as_xyz
  x,y,z
_cell_length_a                    65.2399
_cell_length_b                    14.142
_cell_length_c                    34.142199999999995
_cell_angle_alpha                 90.0
_cell_angle_beta                  90.0
_cell_angle_gamma                 90.0
loop_
_atom_site_label
_atom_site_type_symbol
_atom_site_fract_x
_atom_site_fract_y
_atom_site_fract_z
V1    V   0.07081  0.37500  0.02145
V2    V   0.07081  0.37500  0.72855
V3    V   0.07081  0.87500  0.22855
V4    V   0.07081  0.87500  0.52145
V5    V   0.17919  0.37500  0.22855
V6    V   0.17919  0.37500  0.52145
V7    V   0.17919  0.87500  0.02145
V8    V   0.17919  0.87500  0.72855
V9    V   0.32081  0.12500  0.47855
V10   V   0.32081  0.12500  0.77145
V11   V   0.32081  0.62500  0.27145
V12   V   0.32081  0.62500  0.97855
V13   V   0.42919  0.12500  0.27145
V14   V   0.42919  0.12500  0.97855
V15   V   0.42919  0.62500  0.47855
V16   V   0.42919  0.62500  0.77145
V17   V   0.57081  0.37500  0.22855
V18   V   0.57081  0.37500  0.52145
V19   V   0.57081  0.87500  0.02145
V20   V   0.57081  0.87500  0.72855
V21   V   0.67919  0.37500  0.02145
V22   V   0.67919  0.37500  0.72855
V23   V   0.67919  0.87500  0.22855
V24   V   0.67919  0.87500  0.52145
V25   V   0.82081  0.12500  0.27145
V26   V   0.82081  0.12500  0.97855
V27   V   0.82081  0.62500  0.47855
V28   V   0.82081  0.62500  0.77145
V29   V   0.92919  0.12500  0.47855
V30   V   0.92919  0.12500  0.77145
V31   V   0.92919  0.62500  0.27145
V32   V   0.92919  0.62500  0.97855
E1    E   0.00000  0.00000  0.50000
E2    E   0.00000  0.25000  0.75000
E3    E   0.00000  0.50000  0.00000
E4    E   0.00000  0.75000  0.25000
E5    E   0.07081  0.12500  0.12500
E6    E   0.07081  0.12500  0.62500
E7    E   0.07081  0.37500  0.87500
E8    E   0.07081  0.62500  0.12500
E9    E   0.07081  0.62500  0.62500
E10   E   0.07081  0.87500  0.37500
E11   E   0.12500  0.12500  0.02145
E12   E   0.12500  0.12500  0.22855
E13   E   0.12500  0.12500  0.52145
E14   E   0.12500  0.12500  0.72855
E15   E   0.12500  0.37500  0.12500
E16   E   0.12500  0.37500  0.62500
E17   E   0.12500  0.62500  0.02145
E18   E   0.12500  0.62500  0.22855
E19   E   0.12500  0.62500  0.52145
E20   E   0.12500  0.62500  0.72855
E21   E   0.12500  0.87500  0.12500
E22   E   0.12500  0.87500  0.62500
E23   E   0.17919  0.12500  0.12500
E24   E   0.17919  0.12500  0.62500
E25   E   0.17919  0.37500  0.37500
E26   E   0.17919  0.62500  0.12500
E27   E   0.17919  0.62500  0.62500
E28   E   0.17919  0.87500  0.87500
E29   E   0.25000  0.00000  0.75000
E30   E   0.25000  0.25000  0.50000
E31   E   0.25000  0.50000  0.25000
E32   E   0.25000  0.75000  0.00000
E33   E   0.32081  0.12500  0.62500
E34   E   0.32081  0.37500  0.37500
E35   E   0.32081  0.37500  0.87500
E36   E   0.32081  0.62500  0.12500
E37   E   0.32081  0.87500  0.37500
E38   E   0.32081  0.87500  0.87500
E39   E   0.37500  0.12500  0.37500
E40   E   0.37500  0.12500  0.87500
E41   E   0.37500  0.37500  0.27145
E42   E   0.37500  0.37500  0.47855
E43   E   0.37500  0.37500  0.77145
E44   E   0.37500  0.37500  0.97855
E45   E   0.37500  0.62500  0.37500
E46   E   0.37500  0.62500  0.87500
E47   E   0.37500  0.87500  0.27145
E48   E   0.37500  0.87500  0.47855
E49   E   0.37500  0.87500  0.77145
E50   E   0.37500  0.87500  0.97855
E51   E   0.42919  0.12500  0.12500
E52   E   0.42919  0.37500  0.37500
E53   E   0.42919  0.37500  0.87500
E54   E   0.42919  0.62500  0.62500
E55   E   0.42919  0.87500  0.37500
E56   E   0.42919  0.87500  0.87500
E57   E   0.50000  0.00000  0.00000
E58   E   0.50000  0.25000  0.25000
E59   E   0.50000  0.50000  0.50000
E60   E   0.50000  0.75000  0.75000
E61   E   0.57081  0.12500  0.12500
E62   E   0.57081  0.12500  0.62500
E63   E   0.57081  0.37500  0.37500
E64   E   0.57081  0.62500  0.12500
E65   E   0.57081  0.62500  0.62500
E66   E   0.57081  0.87500  0.87500
E67   E   0.62500  0.12500  0.02145
E68   E   0.62500  0.12500  0.22855
E69   E   0.62500  0.12500  0.52145
E70   E   0.62500  0.12500  0.72855
E71   E   0.62500  0.37500  0.12500
E72   E   0.62500  0.37500  0.62500
E73   E   0.62500  0.62500  0.02145
E74   E   0.62500  0.62500  0.22855
E75   E   0.62500  0.62500  0.52145
E76   E   0.62500  0.62500  0.72855
E77   E   0.62500  0.87500  0.12500
E78   E   0.62500  0.87500  0.62500
E79   E   0.67919  0.12500  0.12500
E80   E   0.67919  0.12500  0.62500
E81   E   0.67919  0.37500  0.87500
E82   E   0.67919  0.62500  0.12500
E83   E   0.67919  0.62500  0.62500
E84   E   0.67919  0.87500  0.37500
E85   E   0.75000  0.00000  0.25000
E86   E   0.75000  0.25000  0.00000
E87   E   0.75000  0.50000  0.75000
E88   E   0.75000  0.75000  0.50000
E89   E   0.82081  0.12500  0.12500
E90   E   0.82081  0.37500  0.37500
E91   E   0.82081  0.37500  0.87500
E92   E   0.82081  0.62500  0.62500
E93   E   0.82081  0.87500  0.37500
E94   E   0.82081  0.87500  0.87500
E95   E   0.87500  0.12500  0.37500
E96   E   0.87500  0.12500  0.87500
E97   E   0.87500  0.37500  0.27145
E98   E   0.87500  0.37500  0.47855
E99   E   0.87500  0.37500  0.77145
E100  E   0.87500  0.37500  0.97855
E101  E   0.87500  0.62500  0.37500
E102  E   0.87500  0.62500  0.87500
E103  E   0.87500  0.87500  0.27145
E104  E   0.87500  0.87500  0.47855
E105  E   0.87500  0.87500  0.77145
E106  E   0.87500  0.87500  0.97855
E107  E   0.92919  0.12500  0.62500
E108  E   0.92919  0.37500  0.37500
E109  E   0.92919  0.37500  0.87500
E110  E   0.92919  0.62500  0.12500
E111  E   0.92919  0.87500  0.37500
E112  E   0.92919  0.87500  0.87500
loop_
