data_soq_Fddd:2  hall_number: 336, V_con: 7
_audit_creation_date              2025-03-06
_audit_creation_method            'MOFbuilder_1.0'
_symmetry_space_group_name_H-M    'P1'
_symmetry_Int_Tables_number       1
_symmetry_cell_setting            triclinic
loop_
_symmetry_equiv_pos_as_xyz
  x,y,z
_cell_length_a                    35.35
_cell_length_b                    22.4827
_cell_length_c                    32.3201
_cell_angle_alpha                 90.0
_cell_angle_beta                  90.0
_cell_angle_gamma                 90.0
loop_
_atom_site_label
_atom_site_type_symbol
_atom_site_fract_x
_atom_site_fract_y
_atom_site_fract_z
V1    V   0.02498  0.28226  0.01561
V2    V   0.02498  0.46774  0.73439
V3    V   0.02498  0.78226  0.51561
V4    V   0.02498  0.96774  0.23439
V5    V   0.22502  0.28226  0.23439
V6    V   0.22502  0.46774  0.51561
V7    V   0.22502  0.78226  0.73439
V8    V   0.22502  0.96774  0.01561
V9    V   0.27498  0.03226  0.48439
V10   V   0.27498  0.21774  0.76561
V11   V   0.27498  0.53226  0.98439
V12   V   0.27498  0.71774  0.26561
V13   V   0.47502  0.03226  0.26561
V14   V   0.47502  0.21774  0.98439
V15   V   0.47502  0.53226  0.76561
V16   V   0.47502  0.71774  0.48439
V17   V   0.52498  0.28226  0.51561
V18   V   0.52498  0.46774  0.23439
V19   V   0.52498  0.78226  0.01561
V20   V   0.52498  0.96774  0.73439
V21   V   0.72502  0.28226  0.73439
V22   V   0.72502  0.46774  0.01561
V23   V   0.72502  0.78226  0.23439
V24   V   0.72502  0.96774  0.51561
V25   V   0.77498  0.03226  0.98439
V26   V   0.77498  0.21774  0.26561
V27   V   0.77498  0.53226  0.48439
V28   V   0.77498  0.71774  0.76561
V29   V   0.97502  0.03226  0.76561
V30   V   0.97502  0.21774  0.48439
V31   V   0.97502  0.53226  0.26561
V32   V   0.97502  0.71774  0.98439
E1    E   0.00000  0.00000  0.50000
E2    E   0.00000  0.09274  0.35939
E3    E   0.00000  0.15726  0.89061
E4    E   0.00000  0.25000  0.75000
E5    E   0.00000  0.34274  0.60939
E6    E   0.00000  0.40726  0.14061
E7    E   0.00000  0.50000  0.00000
E8    E   0.00000  0.59274  0.85939
E9    E   0.00000  0.65726  0.39061
E10   E   0.00000  0.75000  0.25000
E11   E   0.00000  0.84274  0.10939
E12   E   0.00000  0.90726  0.64061
E13   E   0.02498  0.12500  0.12500
E14   E   0.02498  0.37500  0.87500
E15   E   0.02498  0.62500  0.62500
E16   E   0.02498  0.87500  0.37500
E17   E   0.12500  0.12500  0.01561
E18   E   0.12500  0.12500  0.23439
E19   E   0.12500  0.28226  0.12500
E20   E   0.12500  0.46774  0.62500
E21   E   0.12500  0.62500  0.51561
E22   E   0.12500  0.62500  0.73439
E23   E   0.12500  0.78226  0.62500
E24   E   0.12500  0.96774  0.12500
E25   E   0.22502  0.12500  0.12500
E26   E   0.22502  0.37500  0.37500
E27   E   0.22502  0.62500  0.62500
E28   E   0.22502  0.87500  0.87500
E29   E   0.25000  0.00000  0.75000
E30   E   0.25000  0.09274  0.89061
E31   E   0.25000  0.15726  0.35939
E32   E   0.25000  0.25000  0.50000
E33   E   0.25000  0.34274  0.64061
E34   E   0.25000  0.40726  0.10939
E35   E   0.25000  0.50000  0.25000
E36   E   0.25000  0.59274  0.39061
E37   E   0.25000  0.65726  0.85939
E38   E   0.25000  0.75000  0.00000
E39   E   0.25000  0.84274  0.14061
E40   E   0.25000  0.90726  0.60939
E41   E   0.27498  0.12500  0.62500
E42   E   0.27498  0.37500  0.87500
E43   E   0.27498  0.62500  0.12500
E44   E   0.27498  0.87500  0.37500
E45   E   0.37500  0.03226  0.37500
E46   E   0.37500  0.21774  0.87500
E47   E   0.37500  0.37500  0.76561
E48   E   0.37500  0.37500  0.98439
E49   E   0.37500  0.53226  0.87500
E50   E   0.37500  0.71774  0.37500
E51   E   0.37500  0.87500  0.26561
E52   E   0.37500  0.87500  0.48439
E53   E   0.47502  0.12500  0.12500
E54   E   0.47502  0.37500  0.87500
E55   E   0.47502  0.62500  0.62500
E56   E   0.47502  0.87500  0.37500
E57   E   0.50000  0.00000  0.00000
E58   E   0.50000  0.09274  0.85939
E59   E   0.50000  0.15726  0.39061
E60   E   0.50000  0.25000  0.25000
E61   E   0.50000  0.34274  0.10939
E62   E   0.50000  0.40726  0.64061
E63   E   0.50000  0.50000  0.50000
E64   E   0.50000  0.59274  0.35939
E65   E   0.50000  0.65726  0.89061
E66   E   0.50000  0.75000  0.75000
E67   E   0.50000  0.84274  0.60939
E68   E   0.50000  0.90726  0.14061
E69   E   0.52498  0.12500  0.62500
E70   E   0.52498  0.37500  0.37500
E71   E   0.52498  0.62500  0.12500
E72   E   0.52498  0.87500  0.87500
E73   E   0.62500  0.12500  0.51561
E74   E   0.62500  0.12500  0.73439
E75   E   0.62500  0.28226  0.62500
E76   E   0.62500  0.46774  0.12500
E77   E   0.62500  0.62500  0.01561
E78   E   0.62500  0.62500  0.23439
E79   E   0.62500  0.78226  0.12500
E80   E   0.62500  0.96774  0.62500
E81   E   0.72502  0.12500  0.62500
E82   E   0.72502  0.37500  0.87500
E83   E   0.72502  0.62500  0.12500
E84   E   0.72502  0.87500  0.37500
E85   E   0.75000  0.00000  0.25000
E86   E   0.75000  0.09274  0.39061
E87   E   0.75000  0.15726  0.85939
E88   E   0.75000  0.25000  0.00000
E89   E   0.75000  0.34274  0.14061
E90   E   0.75000  0.40726  0.60939
E91   E   0.75000  0.50000  0.75000
E92   E   0.75000  0.59274  0.89061
E93   E   0.75000  0.65726  0.35939
E94   E   0.75000  0.75000  0.50000
E95   E   0.75000  0.84274  0.64061
E96   E   0.75000  0.90726  0.10939
E97   E   0.77498  0.12500  0.12500
E98   E   0.77498  0.37500  0.37500
E99   E   0.77498  0.62500  0.62500
E100  E   0.77498  0.87500  0.87500
E101  E   0.87500  0.03226  0.87500
E102  E   0.87500  0.21774  0.37500
E103  E   0.87500  0.37500  0.26561
E104  E   0.87500  0.37500  0.48439
E105  E   0.87500  0.53226  0.37500
E106  E   0.87500  0.71774  0.87500
E107  E   0.87500  0.87500  0.76561
E108  E   0.87500  0.87500  0.98439
E109  E   0.97502  0.12500  0.62500
E110  E   0.97502  0.37500  0.37500
E111  E   0.97502  0.62500  0.12500
E112  E   0.97502  0.87500  0.87500
loop_
