data_sot_Fddd:2  hall_number: 336, V_con: 8
_audit_creation_date              2025-03-06
_audit_creation_method            'MOFbuilder_1.0'
_symmetry_space_group_name_H-M    'P1'
_symmetry_Int_Tables_number       1
_symmetry_cell_setting            triclinic
loop_
_symmetry_equiv_pos_as_xyz
  x,y,z
_cell_length_a                    73.2782
_cell_length_b                    37.3207
_cell_length_c                    10.0
_cell_angle_alpha                 90.0
_cell_angle_beta                  90.0
_cell_angle_gamma                 90.0
loop_
_atom_site_label
_atom_site_type_symbol
_atom_site_fract_x
_atom_site_fract_y
_atom_site_fract_z
V1    V   0.06591  0.00898  0.87501
V2    V   0.06591  0.24102  0.37499
V3    V   0.06591  0.50898  0.37501
V4    V   0.06591  0.74102  0.87499
V5    V   0.18409  0.00898  0.37499
V6    V   0.18409  0.24102  0.87501
V7    V   0.18409  0.50898  0.87499
V8    V   0.18409  0.74102  0.37501
V9    V   0.31591  0.25898  0.12499
V10   V   0.31591  0.49102  0.62501
V11   V   0.31591  0.75898  0.62499
V12   V   0.31591  0.99102  0.12501
V13   V   0.43409  0.25898  0.62501
V14   V   0.43409  0.49102  0.12499
V15   V   0.43409  0.75898  0.12501
V16   V   0.43409  0.99102  0.62499
V17   V   0.56591  0.00898  0.37501
V18   V   0.56591  0.24102  0.87499
V19   V   0.56591  0.50898  0.87501
V20   V   0.56591  0.74102  0.37499
V21   V   0.68409  0.00898  0.87499
V22   V   0.68409  0.24102  0.37501
V23   V   0.68409  0.50898  0.37499
V24   V   0.68409  0.74102  0.87501
V25   V   0.81591  0.25898  0.62499
V26   V   0.81591  0.49102  0.12501
V27   V   0.81591  0.75898  0.12499
V28   V   0.81591  0.99102  0.62501
V29   V   0.93409  0.25898  0.12501
V30   V   0.93409  0.49102  0.62499
V31   V   0.93409  0.75898  0.62501
V32   V   0.93409  0.99102  0.12499
E1    E   0.00000  0.00000  0.00000
E2    E   0.00000  0.25000  0.25000
E3    E   0.00000  0.50000  0.50000
E4    E   0.00000  0.75000  0.75000
E5    E   0.06591  0.00898  0.37501
E6    E   0.06591  0.12500  0.12500
E7    E   0.06591  0.12500  0.62500
E8    E   0.06591  0.24102  0.87499
E9    E   0.06591  0.37500  0.37500
E10   E   0.06591  0.50898  0.87501
E11   E   0.06591  0.62500  0.12500
E12   E   0.06591  0.62500  0.62500
E13   E   0.06591  0.74102  0.37499
E14   E   0.06591  0.87500  0.87500
E15   E   0.12500  0.00898  0.12500
E16   E   0.12500  0.00898  0.62500
E17   E   0.12500  0.24102  0.12500
E18   E   0.12500  0.24102  0.62500
E19   E   0.12500  0.50898  0.12500
E20   E   0.12500  0.50898  0.62500
E21   E   0.12500  0.74102  0.12500
E22   E   0.12500  0.74102  0.62500
E23   E   0.18409  0.00898  0.87499
E24   E   0.18409  0.12500  0.12500
E25   E   0.18409  0.12500  0.62500
E26   E   0.18409  0.24102  0.37501
E27   E   0.18409  0.37500  0.87500
E28   E   0.18409  0.50898  0.37499
E29   E   0.18409  0.62500  0.12500
E30   E   0.18409  0.62500  0.62500
E31   E   0.18409  0.74102  0.87501
E32   E   0.18409  0.87500  0.37500
E33   E   0.25000  0.00000  0.25000
E34   E   0.25000  0.25000  0.00000
E35   E   0.25000  0.50000  0.75000
E36   E   0.25000  0.75000  0.50000
E37   E   0.31591  0.12500  0.12500
E38   E   0.31591  0.25898  0.62499
E39   E   0.31591  0.37500  0.37500
E40   E   0.31591  0.37500  0.87500
E41   E   0.31591  0.49102  0.12501
E42   E   0.31591  0.62500  0.62500
E43   E   0.31591  0.75898  0.12499
E44   E   0.31591  0.87500  0.37500
E45   E   0.31591  0.87500  0.87500
E46   E   0.31591  0.99102  0.62501
E47   E   0.37500  0.25898  0.37500
E48   E   0.37500  0.25898  0.87500
E49   E   0.37500  0.49102  0.37500
E50   E   0.37500  0.49102  0.87500
E51   E   0.37500  0.75898  0.37500
E52   E   0.37500  0.75898  0.87500
E53   E   0.37500  0.99102  0.37500
E54   E   0.37500  0.99102  0.87500
E55   E   0.43409  0.12500  0.62500
E56   E   0.43409  0.25898  0.12501
E57   E   0.43409  0.37500  0.37500
E58   E   0.43409  0.37500  0.87500
E59   E   0.43409  0.49102  0.62499
E60   E   0.43409  0.62500  0.12500
E61   E   0.43409  0.75898  0.62501
E62   E   0.43409  0.87500  0.37500
E63   E   0.43409  0.87500  0.87500
E64   E   0.43409  0.99102  0.12499
E65   E   0.50000  0.00000  0.50000
E66   E   0.50000  0.25000  0.75000
E67   E   0.50000  0.50000  0.00000
E68   E   0.50000  0.75000  0.25000
E69   E   0.56591  0.00898  0.87501
E70   E   0.56591  0.12500  0.12500
E71   E   0.56591  0.12500  0.62500
E72   E   0.56591  0.24102  0.37499
E73   E   0.56591  0.37500  0.87500
E74   E   0.56591  0.50898  0.37501
E75   E   0.56591  0.62500  0.12500
E76   E   0.56591  0.62500  0.62500
E77   E   0.56591  0.74102  0.87499
E78   E   0.56591  0.87500  0.37500
E79   E   0.62500  0.00898  0.12500
E80   E   0.62500  0.00898  0.62500
E81   E   0.62500  0.24102  0.12500
E82   E   0.62500  0.24102  0.62500
E83   E   0.62500  0.50898  0.12500
E84   E   0.62500  0.50898  0.62500
E85   E   0.62500  0.74102  0.12500
E86   E   0.62500  0.74102  0.62500
E87   E   0.68409  0.00898  0.37499
E88   E   0.68409  0.12500  0.12500
E89   E   0.68409  0.12500  0.62500
E90   E   0.68409  0.24102  0.87501
E91   E   0.68409  0.37500  0.37500
E92   E   0.68409  0.50898  0.87499
E93   E   0.68409  0.62500  0.12500
E94   E   0.68409  0.62500  0.62500
E95   E   0.68409  0.74102  0.37501
E96   E   0.68409  0.87500  0.87500
E97   E   0.75000  0.00000  0.75000
E98   E   0.75000  0.25000  0.50000
E99   E   0.75000  0.50000  0.25000
E100  E   0.75000  0.75000  0.00000
E101  E   0.81591  0.12500  0.62500
E102  E   0.81591  0.25898  0.12499
E103  E   0.81591  0.37500  0.37500
E104  E   0.81591  0.37500  0.87500
E105  E   0.81591  0.49102  0.62501
E106  E   0.81591  0.62500  0.12500
E107  E   0.81591  0.75898  0.62499
E108  E   0.81591  0.87500  0.37500
E109  E   0.81591  0.87500  0.87500
E110  E   0.81591  0.99102  0.12501
E111  E   0.87500  0.25898  0.37500
E112  E   0.87500  0.25898  0.87500
E113  E   0.87500  0.49102  0.37500
E114  E   0.87500  0.49102  0.87500
E115  E   0.87500  0.75898  0.37500
E116  E   0.87500  0.75898  0.87500
E117  E   0.87500  0.99102  0.37500
E118  E   0.87500  0.99102  0.87500
E119  E   0.93409  0.12500  0.12500
E120  E   0.93409  0.25898  0.62501
E121  E   0.93409  0.37500  0.37500
E122  E   0.93409  0.37500  0.87500
E123  E   0.93409  0.49102  0.12499
E124  E   0.93409  0.62500  0.62500
E125  E   0.93409  0.75898  0.12501
E126  E   0.93409  0.87500  0.37500
E127  E   0.93409  0.87500  0.87500
E128  E   0.93409  0.99102  0.62499
loop_
