data_sou_Fddd:2  hall_number: 336, V_con: 8
_audit_creation_date              2025-03-06
_audit_creation_method            'MOFbuilder_1.0'
_symmetry_space_group_name_H-M    'P1'
_symmetry_Int_Tables_number       1
_symmetry_cell_setting            triclinic
loop_
_symmetry_equiv_pos_as_xyz
  x,y,z
_cell_length_a                    32.533500000000004
_cell_length_b                    22.757299999999997
_cell_length_c                    32.677
_cell_angle_alpha                 90.0
_cell_angle_beta                  90.0
_cell_angle_gamma                 90.0
loop_
_atom_site_label
_atom_site_type_symbol
_atom_site_fract_x
_atom_site_fract_y
_atom_site_fract_z
V1    V   0.01454  0.28291  0.01861
V2    V   0.01454  0.46709  0.73139
V3    V   0.01454  0.78291  0.51861
V4    V   0.01454  0.96709  0.23139
V5    V   0.23546  0.28291  0.23139
V6    V   0.23546  0.46709  0.51861
V7    V   0.23546  0.78291  0.73139
V8    V   0.23546  0.96709  0.01861
V9    V   0.26454  0.03291  0.48139
V10   V   0.26454  0.21709  0.76861
V11   V   0.26454  0.53291  0.98139
V12   V   0.26454  0.71709  0.26861
V13   V   0.48546  0.03291  0.26861
V14   V   0.48546  0.21709  0.98139
V15   V   0.48546  0.53291  0.76861
V16   V   0.48546  0.71709  0.48139
V17   V   0.51454  0.28291  0.51861
V18   V   0.51454  0.46709  0.23139
V19   V   0.51454  0.78291  0.01861
V20   V   0.51454  0.96709  0.73139
V21   V   0.73546  0.28291  0.73139
V22   V   0.73546  0.46709  0.01861
V23   V   0.73546  0.78291  0.23139
V24   V   0.73546  0.96709  0.51861
V25   V   0.76454  0.03291  0.98139
V26   V   0.76454  0.21709  0.26861
V27   V   0.76454  0.53291  0.48139
V28   V   0.76454  0.71709  0.76861
V29   V   0.98546  0.03291  0.76861
V30   V   0.98546  0.21709  0.48139
V31   V   0.98546  0.53291  0.26861
V32   V   0.98546  0.71709  0.98139
E1    E   0.00000  0.00000  0.50000
E2    E   0.00000  0.09209  0.35639
E3    E   0.00000  0.15791  0.89361
E4    E   0.00000  0.25000  0.75000
E5    E   0.00000  0.34209  0.60639
E6    E   0.00000  0.40791  0.14361
E7    E   0.00000  0.50000  0.00000
E8    E   0.00000  0.59209  0.85639
E9    E   0.00000  0.65791  0.39361
E10   E   0.00000  0.75000  0.25000
E11   E   0.00000  0.84209  0.10639
E12   E   0.00000  0.90791  0.64361
E13   E   0.01454  0.12500  0.12500
E14   E   0.01454  0.62500  0.62500
E15   E   0.11046  0.34209  0.50000
E16   E   0.11046  0.40791  0.25000
E17   E   0.11046  0.84209  0.00000
E18   E   0.11046  0.90791  0.75000
E19   E   0.12500  0.12500  0.48139
E20   E   0.12500  0.12500  0.76861
E21   E   0.12500  0.28291  0.12500
E22   E   0.12500  0.46709  0.62500
E23   E   0.12500  0.62500  0.26861
E24   E   0.12500  0.62500  0.98139
E25   E   0.12500  0.78291  0.62500
E26   E   0.12500  0.96709  0.12500
E27   E   0.13954  0.34209  0.75000
E28   E   0.13954  0.40791  0.00000
E29   E   0.13954  0.84209  0.25000
E30   E   0.13954  0.90791  0.50000
E31   E   0.23546  0.12500  0.12500
E32   E   0.23546  0.62500  0.62500
E33   E   0.25000  0.00000  0.75000
E34   E   0.25000  0.09209  0.89361
E35   E   0.25000  0.15791  0.35639
E36   E   0.25000  0.25000  0.50000
E37   E   0.25000  0.34209  0.64361
E38   E   0.25000  0.40791  0.10639
E39   E   0.25000  0.50000  0.25000
E40   E   0.25000  0.59209  0.39361
E41   E   0.25000  0.65791  0.85639
E42   E   0.25000  0.75000  0.00000
E43   E   0.25000  0.84209  0.14361
E44   E   0.25000  0.90791  0.60639
E45   E   0.26454  0.37500  0.87500
E46   E   0.26454  0.87500  0.37500
E47   E   0.36046  0.09209  0.00000
E48   E   0.36046  0.15791  0.25000
E49   E   0.36046  0.59209  0.50000
E50   E   0.36046  0.65791  0.75000
E51   E   0.37500  0.03291  0.37500
E52   E   0.37500  0.21709  0.87500
E53   E   0.37500  0.37500  0.23139
E54   E   0.37500  0.37500  0.51861
E55   E   0.37500  0.53291  0.87500
E56   E   0.37500  0.71709  0.37500
E57   E   0.37500  0.87500  0.01861
E58   E   0.37500  0.87500  0.73139
E59   E   0.38954  0.09209  0.75000
E60   E   0.38954  0.15791  0.50000
E61   E   0.38954  0.59209  0.25000
E62   E   0.38954  0.65791  0.00000
E63   E   0.48546  0.37500  0.87500
E64   E   0.48546  0.87500  0.37500
E65   E   0.50000  0.00000  0.00000
E66   E   0.50000  0.09209  0.85639
E67   E   0.50000  0.15791  0.39361
E68   E   0.50000  0.25000  0.25000
E69   E   0.50000  0.34209  0.10639
E70   E   0.50000  0.40791  0.64361
E71   E   0.50000  0.50000  0.50000
E72   E   0.50000  0.59209  0.35639
E73   E   0.50000  0.65791  0.89361
E74   E   0.50000  0.75000  0.75000
E75   E   0.50000  0.84209  0.60639
E76   E   0.50000  0.90791  0.14361
E77   E   0.51454  0.12500  0.62500
E78   E   0.51454  0.62500  0.12500
E79   E   0.61046  0.34209  0.00000
E80   E   0.61046  0.40791  0.75000
E81   E   0.61046  0.84209  0.50000
E82   E   0.61046  0.90791  0.25000
E83   E   0.62500  0.12500  0.26861
E84   E   0.62500  0.12500  0.98139
E85   E   0.62500  0.28291  0.62500
E86   E   0.62500  0.46709  0.12500
E87   E   0.62500  0.62500  0.48139
E88   E   0.62500  0.62500  0.76861
E89   E   0.62500  0.78291  0.12500
E90   E   0.62500  0.96709  0.62500
E91   E   0.63954  0.34209  0.25000
E92   E   0.63954  0.40791  0.50000
E93   E   0.63954  0.84209  0.75000
E94   E   0.63954  0.90791  0.00000
E95   E   0.73546  0.12500  0.62500
E96   E   0.73546  0.62500  0.12500
E97   E   0.75000  0.00000  0.25000
E98   E   0.75000  0.09209  0.39361
E99   E   0.75000  0.15791  0.85639
E100  E   0.75000  0.25000  0.00000
E101  E   0.75000  0.34209  0.14361
E102  E   0.75000  0.40791  0.60639
E103  E   0.75000  0.50000  0.75000
E104  E   0.75000  0.59209  0.89361
E105  E   0.75000  0.65791  0.35639
E106  E   0.75000  0.75000  0.50000
E107  E   0.75000  0.84209  0.64361
E108  E   0.75000  0.90791  0.10639
E109  E   0.76454  0.37500  0.37500
E110  E   0.76454  0.87500  0.87500
E111  E   0.86046  0.09209  0.50000
E112  E   0.86046  0.15791  0.75000
E113  E   0.86046  0.59209  0.00000
E114  E   0.86046  0.65791  0.25000
E115  E   0.87500  0.03291  0.87500
E116  E   0.87500  0.21709  0.37500
E117  E   0.87500  0.37500  0.01861
E118  E   0.87500  0.37500  0.73139
E119  E   0.87500  0.53291  0.37500
E120  E   0.87500  0.71709  0.87500
E121  E   0.87500  0.87500  0.23139
E122  E   0.87500  0.87500  0.51861
E123  E   0.88954  0.09209  0.25000
E124  E   0.88954  0.15791  0.00000
E125  E   0.88954  0.59209  0.75000
E126  E   0.88954  0.65791  0.50000
E127  E   0.98546  0.37500  0.37500
E128  E   0.98546  0.87500  0.87500
loop_
