data_spn-a_Fd-3m:2  hall_number: 526, V_con: 5, EC_con: 3
_audit_creation_date              2025-03-06
_audit_creation_method            'MOFbuilder_1.0'
_symmetry_space_group_name_H-M    'P1'
_symmetry_Int_Tables_number       1
_symmetry_cell_setting            triclinic
loop_
_symmetry_equiv_pos_as_xyz
  x,y,z
_cell_length_a                    10.55577
_cell_length_b                    10.55577
_cell_length_c                    10.55577
_cell_angle_alpha                 90.0
_cell_angle_beta                  90.0
_cell_angle_gamma                 90.0
loop_
_atom_site_label
_atom_site_type_symbol
_atom_site_fract_x
_atom_site_fract_y
_atom_site_fract_z
V1    V   0.00000  0.00000  0.06699
V2    V   0.00000  0.00000  0.93301
V3    V   0.00000  0.06699  0.00000
V4    V   0.00000  0.18301  0.25000
V5    V   0.00000  0.25000  0.18301
V6    V   0.00000  0.25000  0.31699
V7    V   0.00000  0.31699  0.25000
V8    V   0.00000  0.43301  0.50000
V9    V   0.00000  0.50000  0.43301
V10   V   0.00000  0.50000  0.56699
V11   V   0.00000  0.56699  0.50000
V12   V   0.00000  0.68301  0.75000
V13   V   0.00000  0.75000  0.68301
V14   V   0.00000  0.75000  0.81699
V15   V   0.00000  0.81699  0.75000
V16   V   0.00000  0.93301  0.00000
V17   V   0.06699  0.00000  0.00000
V18   V   0.06699  0.25000  0.25000
V19   V   0.06699  0.50000  0.50000
V20   V   0.06699  0.75000  0.75000
V21   V   0.18301  0.00000  0.25000
V22   V   0.18301  0.25000  0.00000
V23   V   0.18301  0.50000  0.75000
V24   V   0.18301  0.75000  0.50000
V25   V   0.25000  0.00000  0.18301
V26   V   0.25000  0.00000  0.31699
V27   V   0.25000  0.06699  0.25000
V28   V   0.25000  0.18301  0.00000
V29   V   0.25000  0.25000  0.06699
V30   V   0.25000  0.25000  0.93301
V31   V   0.25000  0.31699  0.00000
V32   V   0.25000  0.43301  0.75000
V33   V   0.25000  0.50000  0.68301
V34   V   0.25000  0.50000  0.81699
V35   V   0.25000  0.56699  0.75000
V36   V   0.25000  0.68301  0.50000
V37   V   0.25000  0.75000  0.43301
V38   V   0.25000  0.75000  0.56699
V39   V   0.25000  0.81699  0.50000
V40   V   0.25000  0.93301  0.25000
V41   V   0.31699  0.00000  0.25000
V42   V   0.31699  0.25000  0.00000
V43   V   0.31699  0.50000  0.75000
V44   V   0.31699  0.75000  0.50000
V45   V   0.43301  0.00000  0.50000
V46   V   0.43301  0.25000  0.75000
V47   V   0.43301  0.50000  0.00000
V48   V   0.43301  0.75000  0.25000
V49   V   0.50000  0.00000  0.43301
V50   V   0.50000  0.00000  0.56699
V51   V   0.50000  0.06699  0.50000
V52   V   0.50000  0.18301  0.75000
V53   V   0.50000  0.25000  0.68301
V54   V   0.50000  0.25000  0.81699
V55   V   0.50000  0.31699  0.75000
V56   V   0.50000  0.43301  0.00000
V57   V   0.50000  0.50000  0.06699
V58   V   0.50000  0.50000  0.93301
V59   V   0.50000  0.56699  0.00000
V60   V   0.50000  0.68301  0.25000
V61   V   0.50000  0.75000  0.18301
V62   V   0.50000  0.75000  0.31699
V63   V   0.50000  0.81699  0.25000
V64   V   0.50000  0.93301  0.50000
V65   V   0.56699  0.00000  0.50000
V66   V   0.56699  0.25000  0.75000
V67   V   0.56699  0.50000  0.00000
V68   V   0.56699  0.75000  0.25000
V69   V   0.68301  0.00000  0.75000
V70   V   0.68301  0.25000  0.50000
V71   V   0.68301  0.50000  0.25000
V72   V   0.68301  0.75000  0.00000
V73   V   0.75000  0.00000  0.68301
V74   V   0.75000  0.00000  0.81699
V75   V   0.75000  0.06699  0.75000
V76   V   0.75000  0.18301  0.50000
V77   V   0.75000  0.25000  0.43301
V78   V   0.75000  0.25000  0.56699
V79   V   0.75000  0.31699  0.50000
V80   V   0.75000  0.43301  0.25000
V81   V   0.75000  0.50000  0.18301
V82   V   0.75000  0.50000  0.31699
V83   V   0.75000  0.56699  0.25000
V84   V   0.75000  0.68301  0.00000
V85   V   0.75000  0.75000  0.06699
V86   V   0.75000  0.75000  0.93301
V87   V   0.75000  0.81699  0.00000
V88   V   0.75000  0.93301  0.75000
V89   V   0.81699  0.00000  0.75000
V90   V   0.81699  0.25000  0.50000
V91   V   0.81699  0.50000  0.25000
V92   V   0.81699  0.75000  0.00000
V93   V   0.93301  0.00000  0.00000
V94   V   0.93301  0.25000  0.25000
V95   V   0.93301  0.50000  0.50000
V96   V   0.93301  0.75000  0.75000
EC1    EC   0.03891  0.03891  0.14410
EC2    EC   0.03891  0.10590  0.21109
EC3    EC   0.03891  0.14410  0.03891
EC4    EC   0.03891  0.21109  0.10590
EC5    EC   0.03891  0.53891  0.64410
EC6    EC   0.03891  0.60590  0.71109
EC7    EC   0.03891  0.64410  0.53891
EC8    EC   0.03891  0.71109  0.60590
EC9    EC   0.10590  0.03891  0.21109
EC10   EC   0.10590  0.21109  0.03891
EC11   EC   0.10590  0.53891  0.71109
EC12   EC   0.10590  0.71109  0.53891
EC13   EC   0.14410  0.03891  0.03891
EC14   EC   0.14410  0.21109  0.21109
EC15   EC   0.14410  0.53891  0.53891
EC16   EC   0.14410  0.71109  0.71109
EC17   EC   0.21109  0.03891  0.10590
EC18   EC   0.21109  0.10590  0.03891
EC19   EC   0.21109  0.14410  0.21109
EC20   EC   0.21109  0.21109  0.14410
EC21   EC   0.21109  0.53891  0.60590
EC22   EC   0.21109  0.60590  0.53891
EC23   EC   0.21109  0.64410  0.71109
EC24   EC   0.21109  0.71109  0.64410
EC25   EC   0.28891  0.28891  0.85590
EC26   EC   0.28891  0.35590  0.78891
EC27   EC   0.28891  0.39410  0.96109
EC28   EC   0.28891  0.46109  0.89410
EC29   EC   0.28891  0.78891  0.35590
EC30   EC   0.28891  0.85590  0.28891
EC31   EC   0.28891  0.89410  0.46109
EC32   EC   0.28891  0.96109  0.39410
EC33   EC   0.35590  0.28891  0.78891
EC34   EC   0.35590  0.46109  0.96109
EC35   EC   0.35590  0.78891  0.28891
EC36   EC   0.35590  0.96109  0.46109
EC37   EC   0.39410  0.28891  0.96109
EC38   EC   0.39410  0.46109  0.78891
EC39   EC   0.39410  0.78891  0.46109
EC40   EC   0.39410  0.96109  0.28891
EC41   EC   0.46109  0.28891  0.89410
EC42   EC   0.46109  0.35590  0.96109
EC43   EC   0.46109  0.39410  0.78891
EC44   EC   0.46109  0.46109  0.85590
EC45   EC   0.46109  0.78891  0.39410
EC46   EC   0.46109  0.85590  0.46109
EC47   EC   0.46109  0.89410  0.28891
EC48   EC   0.46109  0.96109  0.35590
EC49   EC   0.53891  0.03891  0.64410
EC50   EC   0.53891  0.10590  0.71109
EC51   EC   0.53891  0.14410  0.53891
EC52   EC   0.53891  0.21109  0.60590
EC53   EC   0.53891  0.53891  0.14410
EC54   EC   0.53891  0.60590  0.21109
EC55   EC   0.53891  0.64410  0.03891
EC56   EC   0.53891  0.71109  0.10590
EC57   EC   0.60590  0.03891  0.71109
EC58   EC   0.60590  0.21109  0.53891
EC59   EC   0.60590  0.53891  0.21109
EC60   EC   0.60590  0.71109  0.03891
EC61   EC   0.64410  0.03891  0.53891
EC62   EC   0.64410  0.21109  0.71109
EC63   EC   0.64410  0.53891  0.03891
EC64   EC   0.64410  0.71109  0.21109
EC65   EC   0.71109  0.03891  0.60590
EC66   EC   0.71109  0.10590  0.53891
EC67   EC   0.71109  0.14410  0.71109
EC68   EC   0.71109  0.21109  0.64410
EC69   EC   0.71109  0.53891  0.10590
EC70   EC   0.71109  0.60590  0.03891
EC71   EC   0.71109  0.64410  0.21109
EC72   EC   0.71109  0.71109  0.14410
EC73   EC   0.78891  0.28891  0.35590
EC74   EC   0.78891  0.35590  0.28891
EC75   EC   0.78891  0.39410  0.46109
EC76   EC   0.78891  0.46109  0.39410
EC77   EC   0.78891  0.78891  0.85590
EC78   EC   0.78891  0.85590  0.78891
EC79   EC   0.78891  0.89410  0.96109
EC80   EC   0.78891  0.96109  0.89410
EC81   EC   0.85590  0.28891  0.28891
EC82   EC   0.85590  0.46109  0.46109
EC83   EC   0.85590  0.78891  0.78891
EC84   EC   0.85590  0.96109  0.96109
EC85   EC   0.89410  0.28891  0.46109
EC86   EC   0.89410  0.46109  0.28891
EC87   EC   0.89410  0.78891  0.96109
EC88   EC   0.89410  0.96109  0.78891
EC89   EC   0.96109  0.28891  0.39410
EC90   EC   0.96109  0.35590  0.46109
EC91   EC   0.96109  0.39410  0.28891
EC92   EC   0.96109  0.46109  0.35590
EC93   EC   0.96109  0.78891  0.89410
EC94   EC   0.96109  0.85590  0.96109
EC95   EC   0.96109  0.89410  0.78891
EC96   EC   0.96109  0.96109  0.85590
E1    E   0.00000  0.03349  0.03349
E2    E   0.00000  0.03349  0.96651
E3    E   0.00000  0.03349  0.03349
E4    E   0.00000  0.03349  0.96651
E5    E   0.00000  0.21651  0.21651
E6    E   0.00000  0.21651  0.28349
E7    E   0.00000  0.21651  0.21651
E8    E   0.00000  0.21651  0.28349
E9    E   0.00000  0.28349  0.21651
E10   E   0.00000  0.28349  0.21651
E11   E   0.00000  0.28349  0.28349
E12   E   0.00000  0.46651  0.46651
E13   E   0.00000  0.46651  0.53349
E14   E   0.00000  0.53349  0.46651
E15   E   0.00000  0.53349  0.53349
E16   E   0.00000  0.71651  0.71651
E17   E   0.00000  0.71651  0.78349
E18   E   0.00000  0.78349  0.71651
E19   E   0.00000  0.78349  0.78349
E20   E   0.00000  0.96651  0.03349
E21   E   0.00000  0.96651  0.03349
E22   E   0.00000  0.96651  0.96651
E23   E   0.01946  0.01946  0.10554
E24   E   0.01946  0.10554  0.01946
E25   E   0.01946  0.14446  0.23054
E26   E   0.01946  0.23054  0.14446
E27   E   0.01946  0.51946  0.60554
E28   E   0.01946  0.60554  0.51946
E29   E   0.01946  0.64446  0.73054
E30   E   0.01946  0.73054  0.64446
E31   E   0.03349  0.00000  0.03349
E32   E   0.03349  0.00000  0.96651
E33   E   0.03349  0.03349  0.00000
E34   E   0.03349  0.21651  0.25000
E35   E   0.03349  0.25000  0.21651
E36   E   0.03349  0.25000  0.28349
E37   E   0.03349  0.28349  0.25000
E38   E   0.03349  0.46651  0.50000
E39   E   0.03349  0.50000  0.46651
E40   E   0.03349  0.50000  0.53349
E41   E   0.03349  0.53349  0.50000
E42   E   0.03349  0.71651  0.75000
E43   E   0.03349  0.75000  0.71651
E44   E   0.03349  0.75000  0.78349
E45   E   0.03349  0.78349  0.75000
E46   E   0.03349  0.96651  0.00000
E47   E   0.03349  0.00000  0.03349
E48   E   0.03349  0.00000  0.96651
E49   E   0.03349  0.03349  0.00000
E50   E   0.03349  0.21651  0.25000
E51   E   0.03349  0.25000  0.21651
E52   E   0.03349  0.25000  0.28349
E53   E   0.03349  0.28349  0.25000
E54   E   0.03349  0.46651  0.50000
E55   E   0.03349  0.50000  0.46651
E56   E   0.03349  0.50000  0.53349
E57   E   0.03349  0.53349  0.50000
E58   E   0.03349  0.71651  0.75000
E59   E   0.03349  0.75000  0.71651
E60   E   0.03349  0.75000  0.78349
E61   E   0.03349  0.78349  0.75000
E62   E   0.03349  0.96651  0.00000
E63   E   0.03891  0.07241  0.17759
E64   E   0.03891  0.17759  0.07241
E65   E   0.03891  0.57241  0.67759
E66   E   0.03891  0.67759  0.57241
E67   E   0.07241  0.03891  0.17759
E68   E   0.07241  0.07241  0.21109
E69   E   0.07241  0.17759  0.03891
E70   E   0.07241  0.21109  0.07241
E71   E   0.07241  0.53891  0.67759
E72   E   0.07241  0.57241  0.71109
E73   E   0.07241  0.67759  0.53891
E74   E   0.07241  0.71109  0.57241
E75   E   0.10554  0.01946  0.01946
E76   E   0.10554  0.23054  0.23054
E77   E   0.10554  0.51946  0.51946
E78   E   0.10554  0.73054  0.73054
E79   E   0.14446  0.01946  0.23054
E80   E   0.14446  0.23054  0.01946
E81   E   0.14446  0.51946  0.73054
E82   E   0.14446  0.73054  0.51946
E83   E   0.17759  0.03891  0.07241
E84   E   0.17759  0.07241  0.03891
E85   E   0.17759  0.17759  0.21109
E86   E   0.17759  0.21109  0.17759
E87   E   0.17759  0.53891  0.57241
E88   E   0.17759  0.57241  0.53891
E89   E   0.17759  0.67759  0.71109
E90   E   0.17759  0.71109  0.67759
E91   E   0.21109  0.07241  0.07241
E92   E   0.21109  0.17759  0.17759
E93   E   0.21109  0.57241  0.57241
E94   E   0.21109  0.67759  0.67759
E95   E   0.21651  0.00000  0.21651
E96   E   0.21651  0.00000  0.28349
E97   E   0.21651  0.03349  0.25000
E98   E   0.21651  0.21651  0.00000
E99   E   0.21651  0.25000  0.03349
E100  E   0.21651  0.25000  0.96651
E101  E   0.21651  0.28349  0.00000
E102  E   0.21651  0.46651  0.75000
E103  E   0.21651  0.50000  0.71651
E104  E   0.21651  0.50000  0.78349
E105  E   0.21651  0.53349  0.75000
E106  E   0.21651  0.71651  0.50000
E107  E   0.21651  0.75000  0.46651
E108  E   0.21651  0.75000  0.53349
E109  E   0.21651  0.78349  0.50000
E110  E   0.21651  0.96651  0.25000
E111  E   0.21651  0.00000  0.21651
E112  E   0.21651  0.00000  0.28349
E113  E   0.21651  0.03349  0.25000
E114  E   0.21651  0.21651  0.00000
E115  E   0.21651  0.25000  0.03349
E116  E   0.21651  0.25000  0.96651
E117  E   0.21651  0.28349  0.00000
E118  E   0.21651  0.46651  0.75000
E119  E   0.21651  0.50000  0.71651
E120  E   0.21651  0.50000  0.78349
E121  E   0.21651  0.53349  0.75000
E122  E   0.21651  0.71651  0.50000
E123  E   0.21651  0.75000  0.46651
E124  E   0.21651  0.75000  0.53349
E125  E   0.21651  0.78349  0.50000
E126  E   0.21651  0.96651  0.25000
E127  E   0.23054  0.01946  0.14446
E128  E   0.23054  0.10554  0.23054
E129  E   0.23054  0.14446  0.01946
E130  E   0.23054  0.23054  0.10554
E131  E   0.23054  0.51946  0.64446
E132  E   0.23054  0.60554  0.73054
E133  E   0.23054  0.64446  0.51946
E134  E   0.23054  0.73054  0.60554
E135  E   0.25000  0.03349  0.21651
E136  E   0.25000  0.03349  0.28349
E137  E   0.25000  0.03349  0.21651
E138  E   0.25000  0.03349  0.28349
E139  E   0.25000  0.21651  0.03349
E140  E   0.25000  0.21651  0.96651
E141  E   0.25000  0.21651  0.03349
E142  E   0.25000  0.21651  0.96651
E143  E   0.25000  0.28349  0.03349
E144  E   0.25000  0.28349  0.03349
E145  E   0.25000  0.28349  0.96651
E146  E   0.25000  0.46651  0.71651
E147  E   0.25000  0.46651  0.78349
E148  E   0.25000  0.53349  0.71651
E149  E   0.25000  0.53349  0.78349
E150  E   0.25000  0.71651  0.46651
E151  E   0.25000  0.71651  0.53349
E152  E   0.25000  0.78349  0.46651
E153  E   0.25000  0.78349  0.53349
E154  E   0.25000  0.96651  0.21651
E155  E   0.25000  0.96651  0.21651
E156  E   0.25000  0.96651  0.28349
E157  E   0.26946  0.26946  0.89446
E158  E   0.26946  0.35554  0.98054
E159  E   0.26946  0.39446  0.76946
E160  E   0.26946  0.48054  0.85554
E161  E   0.26946  0.76946  0.39446
E162  E   0.26946  0.85554  0.48054
E163  E   0.26946  0.89446  0.26946
E164  E   0.26946  0.98054  0.35554
E165  E   0.28349  0.00000  0.21651
E166  E   0.28349  0.00000  0.21651
E167  E   0.28349  0.00000  0.28349
E168  E   0.28349  0.03349  0.25000
E169  E   0.28349  0.03349  0.25000
E170  E   0.28349  0.21651  0.00000
E171  E   0.28349  0.21651  0.00000
E172  E   0.28349  0.25000  0.03349
E173  E   0.28349  0.25000  0.03349
E174  E   0.28349  0.25000  0.96651
E175  E   0.28349  0.28349  0.00000
E176  E   0.28349  0.46651  0.75000
E177  E   0.28349  0.50000  0.71651
E178  E   0.28349  0.50000  0.78349
E179  E   0.28349  0.53349  0.75000
E180  E   0.28349  0.71651  0.50000
E181  E   0.28349  0.75000  0.46651
E182  E   0.28349  0.75000  0.53349
E183  E   0.28349  0.78349  0.50000
E184  E   0.28349  0.96651  0.25000
E185  E   0.28891  0.32241  0.82241
E186  E   0.28891  0.42759  0.92759
E187  E   0.28891  0.82241  0.32241
E188  E   0.28891  0.92759  0.42759
E189  E   0.32241  0.28891  0.82241
E190  E   0.32241  0.32241  0.78891
E191  E   0.32241  0.42759  0.96109
E192  E   0.32241  0.46109  0.92759
E193  E   0.32241  0.78891  0.32241
E194  E   0.32241  0.82241  0.28891
E195  E   0.32241  0.92759  0.46109
E196  E   0.32241  0.96109  0.42759
E197  E   0.35554  0.26946  0.98054
E198  E   0.35554  0.48054  0.76946
E199  E   0.35554  0.76946  0.48054
E200  E   0.35554  0.98054  0.26946
E201  E   0.39446  0.26946  0.76946
E202  E   0.39446  0.48054  0.98054
E203  E   0.39446  0.76946  0.26946
E204  E   0.39446  0.98054  0.48054
E205  E   0.42759  0.28891  0.92759
E206  E   0.42759  0.32241  0.96109
E207  E   0.42759  0.42759  0.78891
E208  E   0.42759  0.46109  0.82241
E209  E   0.42759  0.78891  0.42759
E210  E   0.42759  0.82241  0.46109
E211  E   0.42759  0.92759  0.28891
E212  E   0.42759  0.96109  0.32241
E213  E   0.46109  0.32241  0.92759
E214  E   0.46109  0.42759  0.82241
E215  E   0.46109  0.82241  0.42759
E216  E   0.46109  0.92759  0.32241
E217  E   0.46651  0.00000  0.46651
E218  E   0.46651  0.00000  0.53349
E219  E   0.46651  0.03349  0.50000
E220  E   0.46651  0.03349  0.50000
E221  E   0.46651  0.21651  0.75000
E222  E   0.46651  0.21651  0.75000
E223  E   0.46651  0.25000  0.71651
E224  E   0.46651  0.25000  0.78349
E225  E   0.46651  0.28349  0.75000
E226  E   0.46651  0.46651  0.00000
E227  E   0.46651  0.50000  0.03349
E228  E   0.46651  0.50000  0.03349
E229  E   0.46651  0.50000  0.96651
E230  E   0.46651  0.53349  0.00000
E231  E   0.46651  0.71651  0.25000
E232  E   0.46651  0.75000  0.21651
E233  E   0.46651  0.75000  0.21651
E234  E   0.46651  0.75000  0.28349
E235  E   0.46651  0.78349  0.25000
E236  E   0.46651  0.96651  0.50000
E237  E   0.48054  0.26946  0.85554
E238  E   0.48054  0.35554  0.76946
E239  E   0.48054  0.39446  0.98054
E240  E   0.48054  0.48054  0.89446
E241  E   0.48054  0.76946  0.35554
E242  E   0.48054  0.85554  0.26946
E243  E   0.48054  0.89446  0.48054
E244  E   0.48054  0.98054  0.39446
E245  E   0.50000  0.03349  0.46651
E246  E   0.50000  0.03349  0.53349
E247  E   0.50000  0.03349  0.46651
E248  E   0.50000  0.03349  0.53349
E249  E   0.50000  0.21651  0.71651
E250  E   0.50000  0.21651  0.78349
E251  E   0.50000  0.21651  0.71651
E252  E   0.50000  0.21651  0.78349
E253  E   0.50000  0.28349  0.71651
E254  E   0.50000  0.28349  0.78349
E255  E   0.50000  0.46651  0.03349
E256  E   0.50000  0.46651  0.03349
E257  E   0.50000  0.46651  0.96651
E258  E   0.50000  0.53349  0.03349
E259  E   0.50000  0.53349  0.03349
E260  E   0.50000  0.53349  0.96651
E261  E   0.50000  0.71651  0.21651
E262  E   0.50000  0.71651  0.21651
E263  E   0.50000  0.71651  0.28349
E264  E   0.50000  0.78349  0.21651
E265  E   0.50000  0.78349  0.21651
E266  E   0.50000  0.78349  0.28349
E267  E   0.50000  0.96651  0.46651
E268  E   0.50000  0.96651  0.53349
E269  E   0.51946  0.01946  0.60554
E270  E   0.51946  0.10554  0.51946
E271  E   0.51946  0.14446  0.73054
E272  E   0.51946  0.23054  0.64446
E273  E   0.51946  0.51946  0.10554
E274  E   0.51946  0.60554  0.01946
E275  E   0.51946  0.64446  0.23054
E276  E   0.51946  0.73054  0.14446
E277  E   0.53349  0.00000  0.46651
E278  E   0.53349  0.00000  0.53349
E279  E   0.53349  0.03349  0.50000
E280  E   0.53349  0.03349  0.50000
E281  E   0.53349  0.21651  0.75000
E282  E   0.53349  0.21651  0.75000
E283  E   0.53349  0.25000  0.71651
E284  E   0.53349  0.25000  0.78349
E285  E   0.53349  0.28349  0.75000
E286  E   0.53349  0.46651  0.00000
E287  E   0.53349  0.50000  0.03349
E288  E   0.53349  0.50000  0.03349
E289  E   0.53349  0.50000  0.96651
E290  E   0.53349  0.53349  0.00000
E291  E   0.53349  0.71651  0.25000
E292  E   0.53349  0.75000  0.21651
E293  E   0.53349  0.75000  0.21651
E294  E   0.53349  0.75000  0.28349
E295  E   0.53349  0.78349  0.25000
E296  E   0.53349  0.96651  0.50000
E297  E   0.53891  0.07241  0.67759
E298  E   0.53891  0.17759  0.57241
E299  E   0.53891  0.57241  0.17759
E300  E   0.53891  0.67759  0.07241
E301  E   0.57241  0.03891  0.67759
E302  E   0.57241  0.07241  0.71109
E303  E   0.57241  0.17759  0.53891
E304  E   0.57241  0.21109  0.57241
E305  E   0.57241  0.53891  0.17759
E306  E   0.57241  0.57241  0.21109
E307  E   0.57241  0.67759  0.03891
E308  E   0.57241  0.71109  0.07241
E309  E   0.60554  0.01946  0.51946
E310  E   0.60554  0.23054  0.73054
E311  E   0.60554  0.51946  0.01946
E312  E   0.60554  0.73054  0.23054
E313  E   0.64446  0.01946  0.73054
E314  E   0.64446  0.23054  0.51946
E315  E   0.64446  0.51946  0.23054
E316  E   0.64446  0.73054  0.01946
E317  E   0.67759  0.03891  0.57241
E318  E   0.67759  0.07241  0.53891
E319  E   0.67759  0.17759  0.71109
E320  E   0.67759  0.21109  0.67759
E321  E   0.67759  0.53891  0.07241
E322  E   0.67759  0.57241  0.03891
E323  E   0.67759  0.67759  0.21109
E324  E   0.67759  0.71109  0.17759
E325  E   0.71109  0.07241  0.57241
E326  E   0.71109  0.17759  0.67759
E327  E   0.71109  0.57241  0.07241
E328  E   0.71109  0.67759  0.17759
E329  E   0.71651  0.00000  0.71651
E330  E   0.71651  0.00000  0.78349
E331  E   0.71651  0.03349  0.75000
E332  E   0.71651  0.03349  0.75000
E333  E   0.71651  0.21651  0.50000
E334  E   0.71651  0.21651  0.50000
E335  E   0.71651  0.25000  0.46651
E336  E   0.71651  0.25000  0.53349
E337  E   0.71651  0.28349  0.50000
E338  E   0.71651  0.46651  0.25000
E339  E   0.71651  0.50000  0.21651
E340  E   0.71651  0.50000  0.21651
E341  E   0.71651  0.50000  0.28349
E342  E   0.71651  0.53349  0.25000
E343  E   0.71651  0.71651  0.00000
E344  E   0.71651  0.75000  0.03349
E345  E   0.71651  0.75000  0.03349
E346  E   0.71651  0.75000  0.96651
E347  E   0.71651  0.78349  0.00000
E348  E   0.71651  0.96651  0.75000
E349  E   0.73054  0.01946  0.64446
E350  E   0.73054  0.10554  0.73054
E351  E   0.73054  0.14446  0.51946
E352  E   0.73054  0.23054  0.60554
E353  E   0.73054  0.51946  0.14446
E354  E   0.73054  0.60554  0.23054
E355  E   0.73054  0.64446  0.01946
E356  E   0.73054  0.73054  0.10554
E357  E   0.75000  0.03349  0.71651
E358  E   0.75000  0.03349  0.78349
E359  E   0.75000  0.03349  0.71651
E360  E   0.75000  0.03349  0.78349
E361  E   0.75000  0.21651  0.46651
E362  E   0.75000  0.21651  0.53349
E363  E   0.75000  0.21651  0.46651
E364  E   0.75000  0.21651  0.53349
E365  E   0.75000  0.28349  0.46651
E366  E   0.75000  0.28349  0.53349
E367  E   0.75000  0.46651  0.21651
E368  E   0.75000  0.46651  0.21651
E369  E   0.75000  0.46651  0.28349
E370  E   0.75000  0.53349  0.21651
E371  E   0.75000  0.53349  0.21651
E372  E   0.75000  0.53349  0.28349
E373  E   0.75000  0.71651  0.03349
E374  E   0.75000  0.71651  0.03349
E375  E   0.75000  0.71651  0.96651
E376  E   0.75000  0.78349  0.03349
E377  E   0.75000  0.78349  0.03349
E378  E   0.75000  0.78349  0.96651
E379  E   0.75000  0.96651  0.71651
E380  E   0.75000  0.96651  0.78349
E381  E   0.76946  0.26946  0.39446
E382  E   0.76946  0.35554  0.48054
E383  E   0.76946  0.39446  0.26946
E384  E   0.76946  0.48054  0.35554
E385  E   0.76946  0.76946  0.89446
E386  E   0.76946  0.85554  0.98054
E387  E   0.76946  0.89446  0.76946
E388  E   0.76946  0.98054  0.85554
E389  E   0.78349  0.00000  0.71651
E390  E   0.78349  0.00000  0.78349
E391  E   0.78349  0.03349  0.75000
E392  E   0.78349  0.03349  0.75000
E393  E   0.78349  0.21651  0.50000
E394  E   0.78349  0.21651  0.50000
E395  E   0.78349  0.25000  0.46651
E396  E   0.78349  0.25000  0.53349
E397  E   0.78349  0.28349  0.50000
E398  E   0.78349  0.46651  0.25000
E399  E   0.78349  0.50000  0.21651
E400  E   0.78349  0.50000  0.21651
E401  E   0.78349  0.50000  0.28349
E402  E   0.78349  0.53349  0.25000
E403  E   0.78349  0.71651  0.00000
E404  E   0.78349  0.75000  0.03349
E405  E   0.78349  0.75000  0.03349
E406  E   0.78349  0.75000  0.96651
E407  E   0.78349  0.78349  0.00000
E408  E   0.78349  0.96651  0.75000
E409  E   0.78891  0.32241  0.32241
E410  E   0.78891  0.42759  0.42759
E411  E   0.78891  0.82241  0.82241
E412  E   0.78891  0.92759  0.92759
E413  E   0.82241  0.28891  0.32241
E414  E   0.82241  0.32241  0.28891
E415  E   0.82241  0.42759  0.46109
E416  E   0.82241  0.46109  0.42759
E417  E   0.82241  0.78891  0.82241
E418  E   0.82241  0.82241  0.78891
E419  E   0.82241  0.92759  0.96109
E420  E   0.82241  0.96109  0.92759
E421  E   0.85554  0.26946  0.48054
E422  E   0.85554  0.48054  0.26946
E423  E   0.85554  0.76946  0.98054
E424  E   0.85554  0.98054  0.76946
E425  E   0.89446  0.26946  0.26946
E426  E   0.89446  0.48054  0.48054
E427  E   0.89446  0.76946  0.76946
E428  E   0.89446  0.98054  0.98054
E429  E   0.92759  0.28891  0.42759
E430  E   0.92759  0.32241  0.46109
E431  E   0.92759  0.42759  0.28891
E432  E   0.92759  0.46109  0.32241
E433  E   0.92759  0.78891  0.92759
E434  E   0.92759  0.82241  0.96109
E435  E   0.92759  0.92759  0.78891
E436  E   0.92759  0.96109  0.82241
E437  E   0.96109  0.32241  0.42759
E438  E   0.96109  0.42759  0.32241
E439  E   0.96109  0.82241  0.92759
E440  E   0.96109  0.92759  0.82241
E441  E   0.96651  0.00000  0.03349
E442  E   0.96651  0.00000  0.03349
E443  E   0.96651  0.00000  0.96651
E444  E   0.96651  0.03349  0.00000
E445  E   0.96651  0.03349  0.00000
E446  E   0.96651  0.21651  0.25000
E447  E   0.96651  0.21651  0.25000
E448  E   0.96651  0.25000  0.21651
E449  E   0.96651  0.25000  0.21651
E450  E   0.96651  0.25000  0.28349
E451  E   0.96651  0.28349  0.25000
E452  E   0.96651  0.46651  0.50000
E453  E   0.96651  0.50000  0.46651
E454  E   0.96651  0.50000  0.53349
E455  E   0.96651  0.53349  0.50000
E456  E   0.96651  0.71651  0.75000
E457  E   0.96651  0.75000  0.71651
E458  E   0.96651  0.75000  0.78349
E459  E   0.96651  0.78349  0.75000
E460  E   0.96651  0.96651  0.00000
E461  E   0.98054  0.26946  0.35554
E462  E   0.98054  0.35554  0.26946
E463  E   0.98054  0.39446  0.48054
E464  E   0.98054  0.48054  0.39446
E465  E   0.98054  0.76946  0.85554
E466  E   0.98054  0.85554  0.76946
E467  E   0.98054  0.89446  0.98054
E468  E   0.98054  0.98054  0.89446
loop_
