data_sqc-a_I41/amd:2  hall_number: 427, V_con: 4, EC_con: 3
_audit_creation_date              2025-03-06
_audit_creation_method            'MOFbuilder_1.0'
_symmetry_space_group_name_H-M    'P1'
_symmetry_Int_Tables_number       1
_symmetry_cell_setting            triclinic
loop_
_symmetry_equiv_pos_as_xyz
  x,y,z
_cell_length_a                    36.2586
_cell_length_b                    36.2586
_cell_length_c                    120.24770000000001
_cell_angle_alpha                 90.0
_cell_angle_beta                  90.0
_cell_angle_gamma                 90.0
loop_
_atom_site_label
_atom_site_type_symbol
_atom_site_fract_x
_atom_site_fract_y
_atom_site_fract_z
V1    V   0.13790  0.11210  0.33342
V2    V   0.13790  0.11210  0.41658
V3    V   0.13790  0.38790  0.33342
V4    V   0.13790  0.38790  0.41658
V5    V   0.13790  0.61210  0.58342
V6    V   0.13790  0.61210  0.66658
V7    V   0.13790  0.88790  0.58342
V8    V   0.13790  0.88790  0.66658
V9    V   0.36210  0.11210  0.08342
V10   V   0.36210  0.11210  0.16658
V11   V   0.36210  0.38790  0.08342
V12   V   0.36210  0.38790  0.16658
V13   V   0.36210  0.61210  0.83342
V14   V   0.36210  0.61210  0.91658
V15   V   0.36210  0.88790  0.83342
V16   V   0.36210  0.88790  0.91658
V17   V   0.63790  0.11210  0.08342
V18   V   0.63790  0.11210  0.16658
V19   V   0.63790  0.38790  0.08342
V20   V   0.63790  0.38790  0.16658
V21   V   0.63790  0.61210  0.83342
V22   V   0.63790  0.61210  0.91658
V23   V   0.63790  0.88790  0.83342
V24   V   0.63790  0.88790  0.91658
V25   V   0.86210  0.11210  0.33342
V26   V   0.86210  0.11210  0.41658
V27   V   0.86210  0.38790  0.33342
V28   V   0.86210  0.38790  0.41658
V29   V   0.86210  0.61210  0.58342
V30   V   0.86210  0.61210  0.66658
V31   V   0.86210  0.88790  0.58342
V32   V   0.86210  0.88790  0.66658
EC1    EC   0.13790  0.05300  0.03839
EC2    EC   0.13790  0.44700  0.03839
EC3    EC   0.13790  0.55300  0.96161
EC4    EC   0.13790  0.94700  0.96161
EC5    EC   0.19700  0.11210  0.71161
EC6    EC   0.19700  0.38790  0.71161
EC7    EC   0.19700  0.61210  0.28839
EC8    EC   0.19700  0.88790  0.28839
EC9    EC   0.30300  0.11210  0.78839
EC10   EC   0.30300  0.38790  0.78839
EC11   EC   0.30300  0.61210  0.21161
EC12   EC   0.30300  0.88790  0.21161
EC13   EC   0.36210  0.05300  0.46161
EC14   EC   0.36210  0.44700  0.46161
EC15   EC   0.36210  0.55300  0.53839
EC16   EC   0.36210  0.94700  0.53839
EC17   EC   0.63790  0.05300  0.46161
EC18   EC   0.63790  0.44700  0.46161
EC19   EC   0.63790  0.55300  0.53839
EC20   EC   0.63790  0.94700  0.53839
EC21   EC   0.69700  0.11210  0.78839
EC22   EC   0.69700  0.38790  0.78839
EC23   EC   0.69700  0.61210  0.21161
EC24   EC   0.69700  0.88790  0.21161
EC25   EC   0.80300  0.11210  0.71161
EC26   EC   0.80300  0.38790  0.71161
EC27   EC   0.80300  0.61210  0.28839
EC28   EC   0.80300  0.88790  0.28839
EC29   EC   0.86210  0.05300  0.03839
EC30   EC   0.86210  0.44700  0.03839
EC31   EC   0.86210  0.55300  0.96161
EC32   EC   0.86210  0.94700  0.96161
E1    E   0.00000  0.05300  0.03839
E2    E   0.00000  0.11210  0.33342
E3    E   0.00000  0.11210  0.41658
E4    E   0.00000  0.38790  0.33342
E5    E   0.00000  0.38790  0.41658
E6    E   0.00000  0.44700  0.03839
E7    E   0.00000  0.55300  0.96161
E8    E   0.00000  0.61210  0.58342
E9    E   0.00000  0.61210  0.66658
E10   E   0.00000  0.88790  0.58342
E11   E   0.00000  0.88790  0.66658
E12   E   0.00000  0.94700  0.96161
E13   E   0.13790  0.00000  0.00000
E14   E   0.13790  0.11210  0.37500
E15   E   0.13790  0.25000  0.33342
E16   E   0.13790  0.25000  0.41658
E17   E   0.13790  0.38790  0.37500
E18   E   0.13790  0.50000  0.00000
E19   E   0.13790  0.61210  0.62500
E20   E   0.13790  0.75000  0.58342
E21   E   0.13790  0.75000  0.66658
E22   E   0.13790  0.88790  0.62500
E23   E   0.16745  0.00000  0.31090
E24   E   0.16745  0.00000  0.68910
E25   E   0.16745  0.50000  0.31090
E26   E   0.16745  0.50000  0.68910
E27   E   0.19700  0.25000  0.71161
E28   E   0.19700  0.75000  0.28839
E29   E   0.25000  0.08255  0.06090
E30   E   0.25000  0.08255  0.43910
E31   E   0.25000  0.11210  0.75000
E32   E   0.25000  0.38790  0.75000
E33   E   0.25000  0.41745  0.06090
E34   E   0.25000  0.41745  0.43910
E35   E   0.25000  0.58255  0.56090
E36   E   0.25000  0.58255  0.93910
E37   E   0.25000  0.61210  0.25000
E38   E   0.25000  0.88790  0.25000
E39   E   0.25000  0.91745  0.56090
E40   E   0.25000  0.91745  0.93910
E41   E   0.30300  0.25000  0.78839
E42   E   0.30300  0.75000  0.21161
E43   E   0.33255  0.00000  0.18910
E44   E   0.33255  0.00000  0.81090
E45   E   0.33255  0.50000  0.18910
E46   E   0.33255  0.50000  0.81090
E47   E   0.36210  0.00000  0.50000
E48   E   0.36210  0.11210  0.12500
E49   E   0.36210  0.25000  0.08342
E50   E   0.36210  0.25000  0.16658
E51   E   0.36210  0.38790  0.12500
E52   E   0.36210  0.50000  0.50000
E53   E   0.36210  0.61210  0.87500
E54   E   0.36210  0.75000  0.83342
E55   E   0.36210  0.75000  0.91658
E56   E   0.36210  0.88790  0.87500
E57   E   0.50000  0.05300  0.46161
E58   E   0.50000  0.11210  0.08342
E59   E   0.50000  0.11210  0.16658
E60   E   0.50000  0.38790  0.08342
E61   E   0.50000  0.38790  0.16658
E62   E   0.50000  0.44700  0.46161
E63   E   0.50000  0.55300  0.53839
E64   E   0.50000  0.61210  0.83342
E65   E   0.50000  0.61210  0.91658
E66   E   0.50000  0.88790  0.83342
E67   E   0.50000  0.88790  0.91658
E68   E   0.50000  0.94700  0.53839
E69   E   0.63790  0.00000  0.50000
E70   E   0.63790  0.11210  0.12500
E71   E   0.63790  0.25000  0.08342
E72   E   0.63790  0.25000  0.16658
E73   E   0.63790  0.38790  0.12500
E74   E   0.63790  0.50000  0.50000
E75   E   0.63790  0.61210  0.87500
E76   E   0.63790  0.75000  0.83342
E77   E   0.63790  0.75000  0.91658
E78   E   0.63790  0.88790  0.87500
E79   E   0.66745  0.00000  0.18910
E80   E   0.66745  0.00000  0.81090
E81   E   0.66745  0.50000  0.18910
E82   E   0.66745  0.50000  0.81090
E83   E   0.69700  0.25000  0.78839
E84   E   0.69700  0.75000  0.21161
E85   E   0.75000  0.08255  0.06090
E86   E   0.75000  0.08255  0.43910
E87   E   0.75000  0.11210  0.75000
E88   E   0.75000  0.38790  0.75000
E89   E   0.75000  0.41745  0.06090
E90   E   0.75000  0.41745  0.43910
E91   E   0.75000  0.58255  0.56090
E92   E   0.75000  0.58255  0.93910
E93   E   0.75000  0.61210  0.25000
E94   E   0.75000  0.88790  0.25000
E95   E   0.75000  0.91745  0.56090
E96   E   0.75000  0.91745  0.93910
E97   E   0.80300  0.25000  0.71161
E98   E   0.80300  0.75000  0.28839
E99   E   0.83255  0.00000  0.31090
E100  E   0.83255  0.00000  0.68910
E101  E   0.83255  0.50000  0.31090
E102  E   0.83255  0.50000  0.68910
E103  E   0.86210  0.00000  0.00000
E104  E   0.86210  0.11210  0.37500
E105  E   0.86210  0.25000  0.33342
E106  E   0.86210  0.25000  0.41658
E107  E   0.86210  0.38790  0.37500
E108  E   0.86210  0.50000  0.00000
E109  E   0.86210  0.61210  0.62500
E110  E   0.86210  0.75000  0.58342
E111  E   0.86210  0.75000  0.66658
E112  E   0.86210  0.88790  0.62500
loop_
