data_sqp-a_I4/mmm  hall_number: 424, V_con: 5, EC_con: 4
_audit_creation_date              2025-03-06
_audit_creation_method            'MOFbuilder_1.0'
_symmetry_space_group_name_H-M    'P1'
_symmetry_Int_Tables_number       1
_symmetry_cell_setting            triclinic
loop_
_symmetry_equiv_pos_as_xyz
  x,y,z
_cell_length_a                    33.0355
_cell_length_b                    33.0355
_cell_length_c                    56.04
_cell_angle_alpha                 90.0
_cell_angle_beta                  90.0
_cell_angle_gamma                 90.0
loop_
_atom_site_label
_atom_site_type_symbol
_atom_site_fract_x
_atom_site_fract_y
_atom_site_fract_z
V1    V   0.00000  0.00000  0.41078
V2    V   0.00000  0.00000  0.58922
V3    V   0.50000  0.50000  0.08922
V4    V   0.50000  0.50000  0.91078
EC1    EC   0.15135  0.15135  0.28460
EC2    EC   0.15135  0.15135  0.71540
EC3    EC   0.15135  0.84865  0.28460
EC4    EC   0.15135  0.84865  0.71540
EC5    EC   0.34865  0.34865  0.21540
EC6    EC   0.34865  0.34865  0.78460
EC7    EC   0.34865  0.65135  0.21540
EC8    EC   0.34865  0.65135  0.78460
EC9    EC   0.65135  0.34865  0.21540
EC10   EC   0.65135  0.34865  0.78460
EC11   EC   0.65135  0.65135  0.21540
EC12   EC   0.65135  0.65135  0.78460
EC13   EC   0.84865  0.15135  0.28460
EC14   EC   0.84865  0.15135  0.71540
EC15   EC   0.84865  0.84865  0.28460
EC16   EC   0.84865  0.84865  0.71540
E1    E   0.00000  0.00000  0.50000
E2    E   0.00000  0.15135  0.28460
E3    E   0.00000  0.15135  0.71540
E4    E   0.00000  0.84865  0.28460
E5    E   0.00000  0.84865  0.71540
E6    E   0.07568  0.07568  0.34769
E7    E   0.07568  0.07568  0.65231
E8    E   0.07568  0.92432  0.34769
E9    E   0.07568  0.92432  0.65231
E10   E   0.15135  0.00000  0.28460
E11   E   0.15135  0.00000  0.71540
E12   E   0.25000  0.25000  0.25000
E13   E   0.25000  0.25000  0.75000
E14   E   0.25000  0.75000  0.25000
E15   E   0.25000  0.75000  0.75000
E16   E   0.34865  0.50000  0.21540
E17   E   0.34865  0.50000  0.78460
E18   E   0.42432  0.42432  0.15231
E19   E   0.42432  0.42432  0.84769
E20   E   0.42432  0.57568  0.15231
E21   E   0.42432  0.57568  0.84769
E22   E   0.50000  0.34865  0.21540
E23   E   0.50000  0.34865  0.78460
E24   E   0.50000  0.50000  0.00000
E25   E   0.50000  0.65135  0.21540
E26   E   0.50000  0.65135  0.78460
E27   E   0.57568  0.42432  0.15231
E28   E   0.57568  0.42432  0.84769
E29   E   0.57568  0.57568  0.15231
E30   E   0.57568  0.57568  0.84769
E31   E   0.65135  0.50000  0.21540
E32   E   0.65135  0.50000  0.78460
E33   E   0.75000  0.25000  0.25000
E34   E   0.75000  0.25000  0.75000
E35   E   0.75000  0.75000  0.25000
E36   E   0.75000  0.75000  0.75000
E37   E   0.84865  0.00000  0.28460
E38   E   0.84865  0.00000  0.71540
E39   E   0.92432  0.07568  0.34769
E40   E   0.92432  0.07568  0.65231
E41   E   0.92432  0.92432  0.34769
E42   E   0.92432  0.92432  0.65231
loop_
