data_sra_Imma  hall_number: 343, V_con: 4
_audit_creation_date              2025-03-06
_audit_creation_method            'MOFbuilder_1.0'
_symmetry_space_group_name_H-M    'P1'
_symmetry_Int_Tables_number       1
_symmetry_cell_setting            triclinic
loop_
_symmetry_equiv_pos_as_xyz
  x,y,z
_cell_length_a                    16.9175
_cell_length_b                    32.419
_cell_length_c                    26.3447
_cell_angle_alpha                 90.0
_cell_angle_beta                  90.0
_cell_angle_gamma                 90.0
loop_
_atom_site_label
_atom_site_type_symbol
_atom_site_fract_x
_atom_site_fract_y
_atom_site_fract_z
V1    V   0.00000  0.09577  0.14877
V2    V   0.00000  0.40423  0.14877
V3    V   0.00000  0.59577  0.85123
V4    V   0.00000  0.90423  0.85123
V5    V   0.50000  0.09577  0.35123
V6    V   0.50000  0.40423  0.35123
V7    V   0.50000  0.59577  0.64877
V8    V   0.50000  0.90423  0.64877
E1    E   0.00000  0.00000  0.00000
E2    E   0.00000  0.25000  0.14877
E3    E   0.00000  0.50000  0.00000
E4    E   0.00000  0.75000  0.85123
E5    E   0.25000  0.09577  0.25000
E6    E   0.25000  0.40423  0.25000
E7    E   0.25000  0.59577  0.75000
E8    E   0.25000  0.90423  0.75000
E9    E   0.50000  0.00000  0.50000
E10   E   0.50000  0.25000  0.35123
E11   E   0.50000  0.50000  0.50000
E12   E   0.50000  0.75000  0.64877
E13   E   0.75000  0.09577  0.25000
E14   E   0.75000  0.40423  0.25000
E15   E   0.75000  0.59577  0.75000
E16   E   0.75000  0.90423  0.75000
loop_
