data_ssa-a_P63/mmc  hall_number: 488, V_con: 3, EC_con: 3
_audit_creation_date              2025-03-06
_audit_creation_method            'MOFbuilder_1.0'
_symmetry_space_group_name_H-M    'P1'
_symmetry_Int_Tables_number       1
_symmetry_cell_setting            triclinic
loop_
_symmetry_equiv_pos_as_xyz
  x,y,z
_cell_length_a                    76.4233
_cell_length_b                    76.4233
_cell_length_c                    55.246500000000005
_cell_angle_alpha                 90.0
_cell_angle_beta                  90.0
_cell_angle_gamma                 120.0
loop_
_atom_site_label
_atom_site_type_symbol
_atom_site_fract_x
_atom_site_fract_y
_atom_site_fract_z
V1    V   0.05924  0.46420  0.05616
V2    V   0.05924  0.46420  0.44384
V3    V   0.05924  0.59504  0.05616
V4    V   0.05924  0.59504  0.44384
V5    V   0.40496  0.46420  0.05616
V6    V   0.40496  0.46420  0.44384
V7    V   0.40496  0.94076  0.05616
V8    V   0.40496  0.94076  0.44384
V9    V   0.46420  0.05924  0.55616
V10   V   0.46420  0.05924  0.94384
V11   V   0.46420  0.40496  0.55616
V12   V   0.46420  0.40496  0.94384
V13   V   0.53580  0.59504  0.05616
V14   V   0.53580  0.59504  0.44384
V15   V   0.53580  0.94076  0.05616
V16   V   0.53580  0.94076  0.44384
V17   V   0.59504  0.05924  0.55616
V18   V   0.59504  0.05924  0.94384
V19   V   0.59504  0.53580  0.55616
V20   V   0.59504  0.53580  0.94384
V21   V   0.94076  0.40496  0.55616
V22   V   0.94076  0.40496  0.94384
V23   V   0.94076  0.53580  0.55616
V24   V   0.94076  0.53580  0.94384
EC1    EC   0.16654  0.46393  0.15950
EC2    EC   0.16654  0.46393  0.34050
EC3    EC   0.16654  0.70261  0.15950
EC4    EC   0.16654  0.70261  0.34050
EC5    EC   0.29739  0.46393  0.15950
EC6    EC   0.29739  0.46393  0.34050
EC7    EC   0.29739  0.83346  0.15950
EC8    EC   0.29739  0.83346  0.34050
EC9    EC   0.46393  0.16654  0.65950
EC10   EC   0.46393  0.16654  0.84050
EC11   EC   0.46393  0.29739  0.65950
EC12   EC   0.46393  0.29739  0.84050
EC13   EC   0.53607  0.70261  0.15950
EC14   EC   0.53607  0.70261  0.34050
EC15   EC   0.53607  0.83346  0.15950
EC16   EC   0.53607  0.83346  0.34050
EC17   EC   0.70261  0.16654  0.65950
EC18   EC   0.70261  0.16654  0.84050
EC19   EC   0.70261  0.53607  0.65950
EC20   EC   0.70261  0.53607  0.84050
EC21   EC   0.83346  0.29739  0.65950
EC22   EC   0.83346  0.29739  0.84050
EC23   EC   0.83346  0.53607  0.65950
EC24   EC   0.83346  0.53607  0.84050
E1    E   0.00000  0.43457  0.00000
E2    E   0.00000  0.43457  0.50000
E3    E   0.00000  0.56543  0.00000
E4    E   0.00000  0.56543  0.50000
E5    E   0.05924  0.52962  0.05616
E6    E   0.05924  0.52962  0.44384
E7    E   0.11289  0.46406  0.10783
E8    E   0.11289  0.46406  0.39217
E9    E   0.11289  0.64883  0.10783
E10   E   0.11289  0.64883  0.39217
E11   E   0.16654  0.46393  0.25000
E12   E   0.16654  0.70261  0.25000
E13   E   0.23196  0.46393  0.15950
E14   E   0.23196  0.46393  0.34050
E15   E   0.23196  0.76803  0.15950
E16   E   0.23196  0.76803  0.34050
E17   E   0.23197  0.46393  0.15950
E18   E   0.23197  0.46393  0.34050
E19   E   0.23197  0.76804  0.15950
E20   E   0.23197  0.76804  0.34050
E21   E   0.29739  0.46393  0.25000
E22   E   0.29739  0.83346  0.25000
E23   E   0.35117  0.46406  0.10783
E24   E   0.35117  0.46406  0.39217
E25   E   0.35117  0.88711  0.10783
E26   E   0.35117  0.88711  0.39217
E27   E   0.43457  0.00000  0.00000
E28   E   0.43457  0.00000  0.50000
E29   E   0.43457  0.43457  0.00000
E30   E   0.43457  0.43457  0.50000
E31   E   0.46393  0.16654  0.75000
E32   E   0.46393  0.23196  0.65950
E33   E   0.46393  0.23196  0.84050
E34   E   0.46393  0.23197  0.65950
E35   E   0.46393  0.23197  0.84050
E36   E   0.46393  0.29739  0.75000
E37   E   0.46406  0.11289  0.60783
E38   E   0.46406  0.11289  0.89217
E39   E   0.46406  0.35117  0.60783
E40   E   0.46406  0.35117  0.89217
E41   E   0.47038  0.52962  0.05616
E42   E   0.47038  0.52962  0.44384
E43   E   0.47038  0.94076  0.05616
E44   E   0.47038  0.94076  0.44384
E45   E   0.47038  0.52962  0.05616
E46   E   0.47038  0.52962  0.44384
E47   E   0.47038  0.94076  0.05616
E48   E   0.47038  0.94076  0.44384
E49   E   0.52962  0.05924  0.55616
E50   E   0.52962  0.05924  0.94384
E51   E   0.52962  0.47038  0.55616
E52   E   0.52962  0.47038  0.94384
E53   E   0.52962  0.47038  0.55616
E54   E   0.52962  0.47038  0.94384
E55   E   0.53594  0.64883  0.10783
E56   E   0.53594  0.64883  0.39217
E57   E   0.53594  0.88711  0.10783
E58   E   0.53594  0.88711  0.39217
E59   E   0.53607  0.70261  0.25000
E60   E   0.53607  0.76803  0.15950
E61   E   0.53607  0.76803  0.34050
E62   E   0.53607  0.76804  0.15950
E63   E   0.53607  0.76804  0.34050
E64   E   0.53607  0.83346  0.25000
E65   E   0.56543  0.00000  0.00000
E66   E   0.56543  0.00000  0.50000
E67   E   0.56543  0.56543  0.00000
E68   E   0.56543  0.56543  0.50000
E69   E   0.64883  0.11289  0.60783
E70   E   0.64883  0.11289  0.89217
E71   E   0.64883  0.53594  0.60783
E72   E   0.64883  0.53594  0.89217
E73   E   0.70261  0.16654  0.75000
E74   E   0.70261  0.53607  0.75000
E75   E   0.76803  0.23196  0.65950
E76   E   0.76803  0.23196  0.84050
E77   E   0.76803  0.53607  0.65950
E78   E   0.76803  0.53607  0.84050
E79   E   0.76804  0.23197  0.65950
E80   E   0.76804  0.23197  0.84050
E81   E   0.76804  0.53607  0.65950
E82   E   0.76804  0.53607  0.84050
E83   E   0.83346  0.29739  0.75000
E84   E   0.83346  0.53607  0.75000
E85   E   0.88711  0.35117  0.60783
E86   E   0.88711  0.35117  0.89217
E87   E   0.88711  0.53594  0.60783
E88   E   0.88711  0.53594  0.89217
E89   E   0.94076  0.47038  0.55616
E90   E   0.94076  0.47038  0.94384
E91   E   0.94076  0.47038  0.55616
E92   E   0.94076  0.47038  0.94384
loop_
