data_sta_P63/mmc  hall_number: 488, V_con: 6, EC_con: 6
_audit_creation_date              2025-03-06
_audit_creation_method            'MOFbuilder_1.0'
_symmetry_space_group_name_H-M    'P1'
_symmetry_Int_Tables_number       1
_symmetry_cell_setting            triclinic
loop_
_symmetry_equiv_pos_as_xyz
  x,y,z
_cell_length_a                    14.142600000000002
_cell_length_b                    14.142600000000002
_cell_length_c                    34.6387
_cell_angle_alpha                 90.0
_cell_angle_beta                  90.0
_cell_angle_gamma                 120.0
loop_
_atom_site_label
_atom_site_type_symbol
_atom_site_fract_x
_atom_site_fract_y
_atom_site_fract_z
V1    V   0.00000  0.00000  0.25000
V2    V   0.00000  0.00000  0.75000
EC1    EC   0.33333  0.66666  0.08334
EC2    EC   0.33333  0.66666  0.41666
EC3    EC   0.33333  0.66667  0.08334
EC4    EC   0.33333  0.66667  0.41666
EC5    EC   0.33334  0.66667  0.08334
EC6    EC   0.33334  0.66667  0.41666
EC7    EC   0.66666  0.33333  0.58334
EC8    EC   0.66666  0.33333  0.91666
EC9    EC   0.66667  0.33333  0.58334
EC10   EC   0.66667  0.33333  0.91666
EC11   EC   0.66667  0.33334  0.58334
EC12   EC   0.66667  0.33334  0.91666
E1    E   0.00000  0.50000  0.00000
E2    E   0.00000  0.50000  0.50000
E3    E   0.16667  0.33334  0.16667
E4    E   0.16667  0.33334  0.33333
E5    E   0.16667  0.83333  0.16667
E6    E   0.16667  0.83333  0.33333
E7    E   0.33334  0.16667  0.66667
E8    E   0.33334  0.16667  0.83333
E9    E   0.50000  0.00000  0.00000
E10   E   0.50000  0.00000  0.50000
E11   E   0.50000  0.50000  0.00000
E12   E   0.50000  0.50000  0.50000
E13   E   0.66666  0.83333  0.16667
E14   E   0.66666  0.83333  0.33333
E15   E   0.83333  0.16667  0.66667
E16   E   0.83333  0.16667  0.83333
E17   E   0.83333  0.66666  0.66667
E18   E   0.83333  0.66666  0.83333
loop_
