data_stw_I4/mmm  hall_number: 424, V_con: 4, EC_con: 3
_audit_creation_date              2025-03-06
_audit_creation_method            'MOFbuilder_1.0'
_symmetry_space_group_name_H-M    'P1'
_symmetry_Int_Tables_number       1
_symmetry_cell_setting            triclinic
loop_
_symmetry_equiv_pos_as_xyz
  x,y,z
_cell_length_a                    44.222
_cell_length_b                    44.222
_cell_length_c                    34.911
_cell_angle_alpha                 90.0
_cell_angle_beta                  90.0
_cell_angle_gamma                 90.0
loop_
_atom_site_label
_atom_site_type_symbol
_atom_site_fract_x
_atom_site_fract_y
_atom_site_fract_z
V1    V   0.00000  0.19024  0.50000
V2    V   0.00000  0.80976  0.50000
V3    V   0.19024  0.00000  0.50000
V4    V   0.30976  0.50000  0.00000
V5    V   0.50000  0.30976  0.00000
V6    V   0.50000  0.69024  0.00000
V7    V   0.69024  0.50000  0.00000
V8    V   0.80976  0.00000  0.50000
EC1    EC   0.19058  0.19058  0.34581
EC2    EC   0.19058  0.19058  0.65419
EC3    EC   0.19058  0.80942  0.34581
EC4    EC   0.19058  0.80942  0.65419
EC5    EC   0.30942  0.30942  0.15419
EC6    EC   0.30942  0.30942  0.84581
EC7    EC   0.30942  0.69058  0.15419
EC8    EC   0.30942  0.69058  0.84581
EC9    EC   0.69058  0.30942  0.15419
EC10   EC   0.69058  0.30942  0.84581
EC11   EC   0.69058  0.69058  0.15419
EC12   EC   0.69058  0.69058  0.84581
EC13   EC   0.80942  0.19058  0.34581
EC14   EC   0.80942  0.19058  0.65419
EC15   EC   0.80942  0.80942  0.34581
EC16   EC   0.80942  0.80942  0.65419
E1    E   0.09529  0.19041  0.42291
E2    E   0.09529  0.19041  0.57709
E3    E   0.09529  0.80959  0.42291
E4    E   0.09529  0.80959  0.57709
E5    E   0.19041  0.09529  0.42291
E6    E   0.19041  0.09529  0.57709
E7    E   0.19041  0.90471  0.42291
E8    E   0.19041  0.90471  0.57709
E9    E   0.25000  0.25000  0.25000
E10   E   0.25000  0.25000  0.75000
E11   E   0.25000  0.75000  0.25000
E12   E   0.25000  0.75000  0.75000
E13   E   0.30959  0.40471  0.07709
E14   E   0.30959  0.40471  0.92291
E15   E   0.30959  0.59529  0.07709
E16   E   0.30959  0.59529  0.92291
E17   E   0.40471  0.30959  0.07709
E18   E   0.40471  0.30959  0.92291
E19   E   0.40471  0.69041  0.07709
E20   E   0.40471  0.69041  0.92291
E21   E   0.59529  0.30959  0.07709
E22   E   0.59529  0.30959  0.92291
E23   E   0.59529  0.69041  0.07709
E24   E   0.59529  0.69041  0.92291
E25   E   0.69041  0.40471  0.07709
E26   E   0.69041  0.40471  0.92291
E27   E   0.69041  0.59529  0.07709
E28   E   0.69041  0.59529  0.92291
E29   E   0.75000  0.25000  0.25000
E30   E   0.75000  0.25000  0.75000
E31   E   0.75000  0.75000  0.25000
E32   E   0.75000  0.75000  0.75000
E33   E   0.80959  0.09529  0.42291
E34   E   0.80959  0.09529  0.57709
E35   E   0.80959  0.90471  0.42291
E36   E   0.80959  0.90471  0.57709
E37   E   0.90471  0.19041  0.42291
E38   E   0.90471  0.19041  0.57709
E39   E   0.90471  0.80959  0.42291
E40   E   0.90471  0.80959  0.57709
loop_
