data_stx_I4/mmm  hall_number: 424, V_con: 4, EC_con: 3
_audit_creation_date              2025-03-06
_audit_creation_method            'MOFbuilder_1.0'
_symmetry_space_group_name_H-M    'P1'
_symmetry_Int_Tables_number       1
_symmetry_cell_setting            triclinic
loop_
_symmetry_equiv_pos_as_xyz
  x,y,z
_cell_length_a                    35.9285
_cell_length_b                    35.9285
_cell_length_c                    37.582300000000004
_cell_angle_alpha                 90.0
_cell_angle_beta                  90.0
_cell_angle_gamma                 90.0
loop_
_atom_site_label
_atom_site_type_symbol
_atom_site_fract_x
_atom_site_fract_y
_atom_site_fract_z
V1    V   0.25000  0.25000  0.25000
V2    V   0.25000  0.25000  0.75000
V3    V   0.25000  0.75000  0.25000
V4    V   0.25000  0.75000  0.75000
V5    V   0.75000  0.25000  0.25000
V6    V   0.75000  0.25000  0.75000
V7    V   0.75000  0.75000  0.25000
V8    V   0.75000  0.75000  0.75000
EC1    EC   0.00000  0.24954  0.36696
EC2    EC   0.00000  0.24954  0.63304
EC3    EC   0.00000  0.75046  0.36696
EC4    EC   0.00000  0.75046  0.63304
EC5    EC   0.24954  0.00000  0.36696
EC6    EC   0.24954  0.00000  0.63304
EC7    EC   0.25046  0.50000  0.13304
EC8    EC   0.25046  0.50000  0.86696
EC9    EC   0.50000  0.25046  0.13304
EC10   EC   0.50000  0.25046  0.86696
EC11   EC   0.50000  0.74954  0.13304
EC12   EC   0.50000  0.74954  0.86696
EC13   EC   0.74954  0.50000  0.13304
EC14   EC   0.74954  0.50000  0.86696
EC15   EC   0.75046  0.00000  0.36696
EC16   EC   0.75046  0.00000  0.63304
E1    E   0.00000  0.24954  0.50000
E2    E   0.00000  0.75046  0.50000
E3    E   0.12500  0.24977  0.30848
E4    E   0.12500  0.24977  0.69152
E5    E   0.12500  0.75023  0.30848
E6    E   0.12500  0.75023  0.69152
E7    E   0.24954  0.00000  0.50000
E8    E   0.24977  0.12500  0.30848
E9    E   0.24977  0.12500  0.69152
E10   E   0.24977  0.87500  0.30848
E11   E   0.24977  0.87500  0.69152
E12   E   0.25023  0.37500  0.19152
E13   E   0.25023  0.37500  0.80848
E14   E   0.25023  0.62500  0.19152
E15   E   0.25023  0.62500  0.80848
E16   E   0.25046  0.50000  0.00000
E17   E   0.37500  0.25023  0.19152
E18   E   0.37500  0.25023  0.80848
E19   E   0.37500  0.74977  0.19152
E20   E   0.37500  0.74977  0.80848
E21   E   0.50000  0.25046  0.00000
E22   E   0.50000  0.74954  0.00000
E23   E   0.62500  0.25023  0.19152
E24   E   0.62500  0.25023  0.80848
E25   E   0.62500  0.74977  0.19152
E26   E   0.62500  0.74977  0.80848
E27   E   0.74954  0.50000  0.00000
E28   E   0.74977  0.37500  0.19152
E29   E   0.74977  0.37500  0.80848
E30   E   0.74977  0.62500  0.19152
E31   E   0.74977  0.62500  0.80848
E32   E   0.75023  0.12500  0.30848
E33   E   0.75023  0.12500  0.69152
E34   E   0.75023  0.87500  0.30848
E35   E   0.75023  0.87500  0.69152
E36   E   0.75046  0.00000  0.50000
E37   E   0.87500  0.24977  0.30848
E38   E   0.87500  0.24977  0.69152
E39   E   0.87500  0.75023  0.30848
E40   E   0.87500  0.75023  0.69152
loop_
