data_sva_I41md  hall_number: 386, V_con: 7
_audit_creation_date              2025-03-06
_audit_creation_method            'MOFbuilder_1.0'
_symmetry_space_group_name_H-M    'P1'
_symmetry_Int_Tables_number       1
_symmetry_cell_setting            triclinic
loop_
_symmetry_equiv_pos_as_xyz
  x,y,z
_cell_length_a                    26.583199999999998
_cell_length_b                    26.583199999999998
_cell_length_c                    10.0
_cell_angle_alpha                 90.0
_cell_angle_beta                  90.0
_cell_angle_gamma                 90.0
loop_
_atom_site_label
_atom_site_type_symbol
_atom_site_fract_x
_atom_site_fract_y
_atom_site_fract_z
V1    V   0.00000  0.18809  0.00000
V2    V   0.00000  0.81191  0.00000
V3    V   0.18809  0.50000  0.25000
V4    V   0.31191  0.00000  0.75000
V5    V   0.50000  0.31191  0.50000
V6    V   0.50000  0.68809  0.50000
V7    V   0.68809  0.00000  0.75000
V8    V   0.81191  0.50000  0.25000
E1    E   0.00000  0.00000  0.00000
E2    E   0.00000  0.18809  0.50000
E3    E   0.00000  0.50000  0.25000
E4    E   0.00000  0.81191  0.50000
E5    E   0.09404  0.34404  0.12500
E6    E   0.09404  0.65596  0.12500
E7    E   0.15596  0.09404  0.87500
E8    E   0.15596  0.90596  0.87500
E9    E   0.18809  0.50000  0.75000
E10   E   0.31191  0.00000  0.25000
E11   E   0.34404  0.40596  0.37500
E12   E   0.34404  0.59404  0.37500
E13   E   0.40596  0.15596  0.62500
E14   E   0.40596  0.84404  0.62500
E15   E   0.50000  0.00000  0.75000
E16   E   0.50000  0.31191  0.00000
E17   E   0.50000  0.50000  0.50000
E18   E   0.50000  0.68809  0.00000
E19   E   0.59404  0.15596  0.62500
E20   E   0.59404  0.84404  0.62500
E21   E   0.65596  0.40596  0.37500
E22   E   0.65596  0.59404  0.37500
E23   E   0.68809  0.00000  0.25000
E24   E   0.81191  0.50000  0.75000
E25   E   0.84404  0.09404  0.87500
E26   E   0.84404  0.90596  0.87500
E27   E   0.90596  0.34404  0.12500
E28   E   0.90596  0.65596  0.12500
loop_
