data_svj_P6/m  hall_number: 469, V_con: 7
_audit_creation_date              2025-03-06
_audit_creation_method            'MOFbuilder_1.0'
_symmetry_space_group_name_H-M    'P1'
_symmetry_Int_Tables_number       1
_symmetry_cell_setting            triclinic
loop_
_symmetry_equiv_pos_as_xyz
  x,y,z
_cell_length_a                    26.4576
_cell_length_b                    26.4576
_cell_length_c                    10.0
_cell_angle_alpha                 90.0
_cell_angle_beta                  90.0
_cell_angle_gamma                 120.0
loop_
_atom_site_label
_atom_site_type_symbol
_atom_site_fract_x
_atom_site_fract_y
_atom_site_fract_z
V1    V   0.14286  0.42857  0.00000
V2    V   0.28571  0.85714  0.00000
V3    V   0.42857  0.28571  0.00000
V4    V   0.57143  0.71429  0.00000
V5    V   0.71429  0.14286  0.00000
V6    V   0.85714  0.57143  0.00000
E1    E   0.00000  0.50000  0.00000
E2    E   0.07142  0.71428  0.00000
E3    E   0.14286  0.42857  0.50000
E4    E   0.21429  0.64286  0.00000
E5    E   0.28571  0.85714  0.50000
E6    E   0.28572  0.35714  0.00000
E7    E   0.35714  0.07142  0.00000
E8    E   0.35714  0.57143  0.00000
E9    E   0.42857  0.28571  0.50000
E10   E   0.42857  0.78571  0.00000
E11   E   0.50000  0.00000  0.00000
E12   E   0.50000  0.50000  0.00000
E13   E   0.57143  0.21429  0.00000
E14   E   0.57143  0.71429  0.50000
E15   E   0.64286  0.42857  0.00000
E16   E   0.64286  0.92858  0.00000
E17   E   0.71428  0.64286  0.00000
E18   E   0.71429  0.14286  0.50000
E19   E   0.78571  0.35714  0.00000
E20   E   0.85714  0.57143  0.50000
E21   E   0.92858  0.28572  0.00000
loop_
