data_svm_Fd-3:2  hall_number: 499, V_con: 7
_audit_creation_date              2025-03-06
_audit_creation_method            'MOFbuilder_1.0'
_symmetry_space_group_name_H-M    'P1'
_symmetry_Int_Tables_number       1
_symmetry_cell_setting            triclinic
loop_
_symmetry_equiv_pos_as_xyz
  x,y,z
_cell_length_a                    48.266400000000004
_cell_length_b                    48.266400000000004
_cell_length_c                    48.266400000000004
_cell_angle_alpha                 90.0
_cell_angle_beta                  90.0
_cell_angle_gamma                 90.0
loop_
_atom_site_label
_atom_site_type_symbol
_atom_site_fract_x
_atom_site_fract_y
_atom_site_fract_z
V1    V   0.02658  0.32522  0.09268
V2    V   0.02658  0.42478  0.65732
V3    V   0.02658  0.82522  0.59268
V4    V   0.02658  0.92478  0.15732
V5    V   0.07522  0.34268  0.47342
V6    V   0.07522  0.40732  0.27658
V7    V   0.07522  0.84268  0.97342
V8    V   0.07522  0.90732  0.77658
V9    V   0.09268  0.02658  0.32522
V10   V   0.09268  0.22342  0.92478
V11   V   0.09268  0.52658  0.82522
V12   V   0.09268  0.72342  0.42478
V13   V   0.15732  0.02658  0.92478
V14   V   0.15732  0.22342  0.32522
V15   V   0.15732  0.52658  0.42478
V16   V   0.15732  0.72342  0.82522
V17   V   0.17478  0.34268  0.77658
V18   V   0.17478  0.40732  0.97342
V19   V   0.17478  0.84268  0.27658
V20   V   0.17478  0.90732  0.47342
V21   V   0.22342  0.32522  0.15732
V22   V   0.22342  0.42478  0.59268
V23   V   0.22342  0.82522  0.65732
V24   V   0.22342  0.92478  0.09268
V25   V   0.27658  0.07522  0.40732
V26   V   0.27658  0.17478  0.84268
V27   V   0.27658  0.57522  0.90732
V28   V   0.27658  0.67478  0.34268
V29   V   0.32522  0.09268  0.02658
V30   V   0.32522  0.15732  0.22342
V31   V   0.32522  0.59268  0.52658
V32   V   0.32522  0.65732  0.72342
V33   V   0.34268  0.27658  0.67478
V34   V   0.34268  0.47342  0.07522
V35   V   0.34268  0.77658  0.17478
V36   V   0.34268  0.97342  0.57522
V37   V   0.40732  0.27658  0.07522
V38   V   0.40732  0.47342  0.67478
V39   V   0.40732  0.77658  0.57522
V40   V   0.40732  0.97342  0.17478
V41   V   0.42478  0.09268  0.72342
V42   V   0.42478  0.15732  0.52658
V43   V   0.42478  0.59268  0.22342
V44   V   0.42478  0.65732  0.02658
V45   V   0.47342  0.07522  0.34268
V46   V   0.47342  0.17478  0.90732
V47   V   0.47342  0.57522  0.84268
V48   V   0.47342  0.67478  0.40732
V49   V   0.52658  0.32522  0.59268
V50   V   0.52658  0.42478  0.15732
V51   V   0.52658  0.82522  0.09268
V52   V   0.52658  0.92478  0.65732
V53   V   0.57522  0.34268  0.97342
V54   V   0.57522  0.40732  0.77658
V55   V   0.57522  0.84268  0.47342
V56   V   0.57522  0.90732  0.27658
V57   V   0.59268  0.02658  0.82522
V58   V   0.59268  0.22342  0.42478
V59   V   0.59268  0.52658  0.32522
V60   V   0.59268  0.72342  0.92478
V61   V   0.65732  0.02658  0.42478
V62   V   0.65732  0.22342  0.82522
V63   V   0.65732  0.52658  0.92478
V64   V   0.65732  0.72342  0.32522
V65   V   0.67478  0.34268  0.27658
V66   V   0.67478  0.40732  0.47342
V67   V   0.67478  0.84268  0.77658
V68   V   0.67478  0.90732  0.97342
V69   V   0.72342  0.32522  0.65732
V70   V   0.72342  0.42478  0.09268
V71   V   0.72342  0.82522  0.15732
V72   V   0.72342  0.92478  0.59268
V73   V   0.77658  0.07522  0.90732
V74   V   0.77658  0.17478  0.34268
V75   V   0.77658  0.57522  0.40732
V76   V   0.77658  0.67478  0.84268
V77   V   0.82522  0.09268  0.52658
V78   V   0.82522  0.15732  0.72342
V79   V   0.82522  0.59268  0.02658
V80   V   0.82522  0.65732  0.22342
V81   V   0.84268  0.27658  0.17478
V82   V   0.84268  0.47342  0.57522
V83   V   0.84268  0.77658  0.67478
V84   V   0.84268  0.97342  0.07522
V85   V   0.90732  0.27658  0.57522
V86   V   0.90732  0.47342  0.17478
V87   V   0.90732  0.77658  0.07522
V88   V   0.90732  0.97342  0.67478
V89   V   0.92478  0.09268  0.22342
V90   V   0.92478  0.15732  0.02658
V91   V   0.92478  0.59268  0.72342
V92   V   0.92478  0.65732  0.52658
V93   V   0.97342  0.07522  0.84268
V94   V   0.97342  0.17478  0.40732
V95   V   0.97342  0.57522  0.34268
V96   V   0.97342  0.67478  0.90732
E1    E   0.00873  0.05963  0.27432
E2    E   0.00873  0.19037  0.97568
E3    E   0.00873  0.55963  0.77432
E4    E   0.00873  0.69037  0.47568
E5    E   0.02432  0.25873  0.44037
E6    E   0.02432  0.49127  0.30963
E7    E   0.02432  0.75873  0.94037
E8    E   0.02432  0.99127  0.80963
E9    E   0.03305  0.10068  0.36627
E10   E   0.03305  0.14932  0.88373
E11   E   0.03305  0.60068  0.86627
E12   E   0.03305  0.64932  0.38373
E13   E   0.05090  0.36627  0.18463
E14   E   0.05090  0.38373  0.56537
E15   E   0.05090  0.86627  0.68463
E16   E   0.05090  0.88373  0.06537
E17   E   0.05963  0.27432  0.00873
E18   E   0.05963  0.47568  0.74127
E19   E   0.05963  0.77432  0.50873
E20   E   0.05963  0.97568  0.24127
E21   E   0.06537  0.05090  0.88373
E22   E   0.06537  0.19910  0.36627
E23   E   0.06537  0.55090  0.38373
E24   E   0.06537  0.69910  0.86627
E25   E   0.07522  0.37500  0.37500
E26   E   0.07522  0.87500  0.87500
E27   E   0.10068  0.36627  0.03305
E28   E   0.10068  0.38373  0.71695
E29   E   0.10068  0.86627  0.53305
E30   E   0.10068  0.88373  0.21695
E31   E   0.11627  0.28305  0.39932
E32   E   0.11627  0.31537  0.30090
E33   E   0.11627  0.43463  0.44910
E34   E   0.11627  0.46695  0.35068
E35   E   0.11627  0.78305  0.89932
E36   E   0.11627  0.81537  0.80090
E37   E   0.11627  0.93463  0.94910
E38   E   0.11627  0.96695  0.85068
E39   E   0.12500  0.12500  0.32522
E40   E   0.12500  0.12500  0.92478
E41   E   0.12500  0.32522  0.12500
E42   E   0.12500  0.42478  0.62500
E43   E   0.12500  0.62500  0.42478
E44   E   0.12500  0.62500  0.82522
E45   E   0.12500  0.82522  0.62500
E46   E   0.12500  0.92478  0.12500
E47   E   0.13373  0.28305  0.85068
E48   E   0.13373  0.31537  0.94910
E49   E   0.13373  0.43463  0.80090
E50   E   0.13373  0.46695  0.89932
E51   E   0.13373  0.78305  0.35068
E52   E   0.13373  0.81537  0.44910
E53   E   0.13373  0.93463  0.30090
E54   E   0.13373  0.96695  0.39932
E55   E   0.14932  0.36627  0.21695
E56   E   0.14932  0.38373  0.53305
E57   E   0.14932  0.86627  0.71695
E58   E   0.14932  0.88373  0.03305
E59   E   0.17478  0.37500  0.87500
E60   E   0.17478  0.87500  0.37500
E61   E   0.18463  0.05090  0.36627
E62   E   0.18463  0.19910  0.88373
E63   E   0.18463  0.55090  0.86627
E64   E   0.18463  0.69910  0.38373
E65   E   0.19037  0.27432  0.24127
E66   E   0.19037  0.47568  0.50873
E67   E   0.19037  0.77432  0.74127
E68   E   0.19037  0.97568  0.00873
E69   E   0.19910  0.36627  0.06537
E70   E   0.19910  0.38373  0.68463
E71   E   0.19910  0.86627  0.56537
E72   E   0.19910  0.88373  0.18463
E73   E   0.21695  0.10068  0.88373
E74   E   0.21695  0.14932  0.36627
E75   E   0.21695  0.60068  0.38373
E76   E   0.21695  0.64932  0.86627
E77   E   0.22568  0.25873  0.80963
E78   E   0.22568  0.49127  0.94037
E79   E   0.22568  0.75873  0.30963
E80   E   0.22568  0.99127  0.44037
E81   E   0.24127  0.05963  0.97568
E82   E   0.24127  0.19037  0.27432
E83   E   0.24127  0.55963  0.47568
E84   E   0.24127  0.69037  0.77432
E85   E   0.25873  0.30963  0.72568
E86   E   0.25873  0.44037  0.02432
E87   E   0.25873  0.80963  0.22568
E88   E   0.25873  0.94037  0.52432
E89   E   0.27432  0.00873  0.05963
E90   E   0.27432  0.24127  0.19037
E91   E   0.27432  0.50873  0.55963
E92   E   0.27432  0.74127  0.69037
E93   E   0.28305  0.35068  0.63373
E94   E   0.28305  0.39932  0.11627
E95   E   0.28305  0.85068  0.13373
E96   E   0.28305  0.89932  0.61627
E97   E   0.30090  0.11627  0.31537
E98   E   0.30090  0.13373  0.93463
E99   E   0.30090  0.61627  0.81537
E100  E   0.30090  0.63373  0.43463
E101  E   0.30963  0.02432  0.49127
E102  E   0.30963  0.22568  0.75873
E103  E   0.30963  0.52432  0.99127
E104  E   0.30963  0.72568  0.25873
E105  E   0.31537  0.30090  0.11627
E106  E   0.31537  0.44910  0.63373
E107  E   0.31537  0.80090  0.61627
E108  E   0.31537  0.94910  0.13373
E109  E   0.32522  0.12500  0.12500
E110  E   0.32522  0.62500  0.62500
E111  E   0.35068  0.11627  0.46695
E112  E   0.35068  0.13373  0.78305
E113  E   0.35068  0.61627  0.96695
E114  E   0.35068  0.63373  0.28305
E115  E   0.36627  0.03305  0.10068
E116  E   0.36627  0.06537  0.19910
E117  E   0.36627  0.18463  0.05090
E118  E   0.36627  0.21695  0.14932
E119  E   0.36627  0.53305  0.60068
E120  E   0.36627  0.56537  0.69910
E121  E   0.36627  0.68463  0.55090
E122  E   0.36627  0.71695  0.64932
E123  E   0.37500  0.07522  0.37500
E124  E   0.37500  0.17478  0.87500
E125  E   0.37500  0.37500  0.07522
E126  E   0.37500  0.37500  0.67478
E127  E   0.37500  0.57522  0.87500
E128  E   0.37500  0.67478  0.37500
E129  E   0.37500  0.87500  0.17478
E130  E   0.37500  0.87500  0.57522
E131  E   0.38373  0.03305  0.64932
E132  E   0.38373  0.06537  0.55090
E133  E   0.38373  0.18463  0.69910
E134  E   0.38373  0.21695  0.60068
E135  E   0.38373  0.53305  0.14932
E136  E   0.38373  0.56537  0.05090
E137  E   0.38373  0.68463  0.19910
E138  E   0.38373  0.71695  0.10068
E139  E   0.39932  0.11627  0.28305
E140  E   0.39932  0.13373  0.96695
E141  E   0.39932  0.61627  0.78305
E142  E   0.39932  0.63373  0.46695
E143  E   0.42478  0.12500  0.62500
E144  E   0.42478  0.62500  0.12500
E145  E   0.43463  0.30090  0.63373
E146  E   0.43463  0.44910  0.11627
E147  E   0.43463  0.80090  0.13373
E148  E   0.43463  0.94910  0.61627
E149  E   0.44037  0.02432  0.25873
E150  E   0.44037  0.22568  0.99127
E151  E   0.44037  0.52432  0.75873
E152  E   0.44037  0.72568  0.49127
E153  E   0.44910  0.11627  0.43463
E154  E   0.44910  0.13373  0.81537
E155  E   0.44910  0.61627  0.93463
E156  E   0.44910  0.63373  0.31537
E157  E   0.46695  0.35068  0.11627
E158  E   0.46695  0.39932  0.63373
E159  E   0.46695  0.85068  0.61627
E160  E   0.46695  0.89932  0.13373
E161  E   0.47568  0.00873  0.69037
E162  E   0.47568  0.24127  0.55963
E163  E   0.47568  0.50873  0.19037
E164  E   0.47568  0.74127  0.05963
E165  E   0.49127  0.30963  0.02432
E166  E   0.49127  0.44037  0.72568
E167  E   0.49127  0.80963  0.52432
E168  E   0.49127  0.94037  0.22568
E169  E   0.50873  0.05963  0.77432
E170  E   0.50873  0.19037  0.47568
E171  E   0.50873  0.55963  0.27432
E172  E   0.50873  0.69037  0.97568
E173  E   0.52432  0.25873  0.94037
E174  E   0.52432  0.49127  0.80963
E175  E   0.52432  0.75873  0.44037
E176  E   0.52432  0.99127  0.30963
E177  E   0.53305  0.10068  0.86627
E178  E   0.53305  0.14932  0.38373
E179  E   0.53305  0.60068  0.36627
E180  E   0.53305  0.64932  0.88373
E181  E   0.55090  0.36627  0.68463
E182  E   0.55090  0.38373  0.06537
E183  E   0.55090  0.86627  0.18463
E184  E   0.55090  0.88373  0.56537
E185  E   0.55963  0.27432  0.50873
E186  E   0.55963  0.47568  0.24127
E187  E   0.55963  0.77432  0.00873
E188  E   0.55963  0.97568  0.74127
E189  E   0.56537  0.05090  0.38373
E190  E   0.56537  0.19910  0.86627
E191  E   0.56537  0.55090  0.88373
E192  E   0.56537  0.69910  0.36627
E193  E   0.57522  0.37500  0.87500
E194  E   0.57522  0.87500  0.37500
E195  E   0.60068  0.36627  0.53305
E196  E   0.60068  0.38373  0.21695
E197  E   0.60068  0.86627  0.03305
E198  E   0.60068  0.88373  0.71695
E199  E   0.61627  0.28305  0.89932
E200  E   0.61627  0.31537  0.80090
E201  E   0.61627  0.43463  0.94910
E202  E   0.61627  0.46695  0.85068
E203  E   0.61627  0.78305  0.39932
E204  E   0.61627  0.81537  0.30090
E205  E   0.61627  0.93463  0.44910
E206  E   0.61627  0.96695  0.35068
E207  E   0.62500  0.12500  0.42478
E208  E   0.62500  0.12500  0.82522
E209  E   0.62500  0.32522  0.62500
E210  E   0.62500  0.42478  0.12500
E211  E   0.62500  0.62500  0.32522
E212  E   0.62500  0.62500  0.92478
E213  E   0.62500  0.82522  0.12500
E214  E   0.62500  0.92478  0.62500
E215  E   0.63373  0.28305  0.35068
E216  E   0.63373  0.31537  0.44910
E217  E   0.63373  0.43463  0.30090
E218  E   0.63373  0.46695  0.39932
E219  E   0.63373  0.78305  0.85068
E220  E   0.63373  0.81537  0.94910
E221  E   0.63373  0.93463  0.80090
E222  E   0.63373  0.96695  0.89932
E223  E   0.64932  0.36627  0.71695
E224  E   0.64932  0.38373  0.03305
E225  E   0.64932  0.86627  0.21695
E226  E   0.64932  0.88373  0.53305
E227  E   0.67478  0.37500  0.37500
E228  E   0.67478  0.87500  0.87500
E229  E   0.68463  0.05090  0.86627
E230  E   0.68463  0.19910  0.38373
E231  E   0.68463  0.55090  0.36627
E232  E   0.68463  0.69910  0.88373
E233  E   0.69037  0.27432  0.74127
E234  E   0.69037  0.47568  0.00873
E235  E   0.69037  0.77432  0.24127
E236  E   0.69037  0.97568  0.50873
E237  E   0.69910  0.36627  0.56537
E238  E   0.69910  0.38373  0.18463
E239  E   0.69910  0.86627  0.06537
E240  E   0.69910  0.88373  0.68463
E241  E   0.71695  0.10068  0.38373
E242  E   0.71695  0.14932  0.86627
E243  E   0.71695  0.60068  0.88373
E244  E   0.71695  0.64932  0.36627
E245  E   0.72568  0.25873  0.30963
E246  E   0.72568  0.49127  0.44037
E247  E   0.72568  0.75873  0.80963
E248  E   0.72568  0.99127  0.94037
E249  E   0.74127  0.05963  0.47568
E250  E   0.74127  0.19037  0.77432
E251  E   0.74127  0.55963  0.97568
E252  E   0.74127  0.69037  0.27432
E253  E   0.75873  0.30963  0.22568
E254  E   0.75873  0.44037  0.52432
E255  E   0.75873  0.80963  0.72568
E256  E   0.75873  0.94037  0.02432
E257  E   0.77432  0.00873  0.55963
E258  E   0.77432  0.24127  0.69037
E259  E   0.77432  0.50873  0.05963
E260  E   0.77432  0.74127  0.19037
E261  E   0.78305  0.35068  0.13373
E262  E   0.78305  0.39932  0.61627
E263  E   0.78305  0.85068  0.63373
E264  E   0.78305  0.89932  0.11627
E265  E   0.80090  0.11627  0.81537
E266  E   0.80090  0.13373  0.43463
E267  E   0.80090  0.61627  0.31537
E268  E   0.80090  0.63373  0.93463
E269  E   0.80963  0.02432  0.99127
E270  E   0.80963  0.22568  0.25873
E271  E   0.80963  0.52432  0.49127
E272  E   0.80963  0.72568  0.75873
E273  E   0.81537  0.30090  0.61627
E274  E   0.81537  0.44910  0.13373
E275  E   0.81537  0.80090  0.11627
E276  E   0.81537  0.94910  0.63373
E277  E   0.82522  0.12500  0.62500
E278  E   0.82522  0.62500  0.12500
E279  E   0.85068  0.11627  0.96695
E280  E   0.85068  0.13373  0.28305
E281  E   0.85068  0.61627  0.46695
E282  E   0.85068  0.63373  0.78305
E283  E   0.86627  0.03305  0.60068
E284  E   0.86627  0.06537  0.69910
E285  E   0.86627  0.18463  0.55090
E286  E   0.86627  0.21695  0.64932
E287  E   0.86627  0.53305  0.10068
E288  E   0.86627  0.56537  0.19910
E289  E   0.86627  0.68463  0.05090
E290  E   0.86627  0.71695  0.14932
E291  E   0.87500  0.07522  0.87500
E292  E   0.87500  0.17478  0.37500
E293  E   0.87500  0.37500  0.17478
E294  E   0.87500  0.37500  0.57522
E295  E   0.87500  0.57522  0.37500
E296  E   0.87500  0.67478  0.87500
E297  E   0.87500  0.87500  0.07522
E298  E   0.87500  0.87500  0.67478
E299  E   0.88373  0.03305  0.14932
E300  E   0.88373  0.06537  0.05090
E301  E   0.88373  0.18463  0.19910
E302  E   0.88373  0.21695  0.10068
E303  E   0.88373  0.53305  0.64932
E304  E   0.88373  0.56537  0.55090
E305  E   0.88373  0.68463  0.69910
E306  E   0.88373  0.71695  0.60068
E307  E   0.89932  0.11627  0.78305
E308  E   0.89932  0.13373  0.46695
E309  E   0.89932  0.61627  0.28305
E310  E   0.89932  0.63373  0.96695
E311  E   0.92478  0.12500  0.12500
E312  E   0.92478  0.62500  0.62500
E313  E   0.93463  0.30090  0.13373
E314  E   0.93463  0.44910  0.61627
E315  E   0.93463  0.80090  0.63373
E316  E   0.93463  0.94910  0.11627
E317  E   0.94037  0.02432  0.75873
E318  E   0.94037  0.22568  0.49127
E319  E   0.94037  0.52432  0.25873
E320  E   0.94037  0.72568  0.99127
E321  E   0.94910  0.11627  0.93463
E322  E   0.94910  0.13373  0.31537
E323  E   0.94910  0.61627  0.43463
E324  E   0.94910  0.63373  0.81537
E325  E   0.96695  0.35068  0.61627
E326  E   0.96695  0.39932  0.13373
E327  E   0.96695  0.85068  0.11627
E328  E   0.96695  0.89932  0.63373
E329  E   0.97568  0.00873  0.19037
E330  E   0.97568  0.24127  0.05963
E331  E   0.97568  0.50873  0.69037
E332  E   0.97568  0.74127  0.55963
E333  E   0.99127  0.30963  0.52432
E334  E   0.99127  0.44037  0.22568
E335  E   0.99127  0.80963  0.02432
E336  E   0.99127  0.94037  0.72568
loop_
