data_svn_Pa-3  hall_number: 501, V_con: 7
_audit_creation_date              2025-03-06
_audit_creation_method            'MOFbuilder_1.0'
_symmetry_space_group_name_H-M    'P1'
_symmetry_Int_Tables_number       1
_symmetry_cell_setting            triclinic
loop_
_symmetry_equiv_pos_as_xyz
  x,y,z
_cell_length_a                    18.6834
_cell_length_b                    18.6834
_cell_length_c                    18.6834
_cell_angle_alpha                 90.0
_cell_angle_beta                  90.0
_cell_angle_gamma                 90.0
loop_
_atom_site_label
_atom_site_type_symbol
_atom_site_fract_x
_atom_site_fract_y
_atom_site_fract_z
V1    V   0.15451  0.65451  0.84549
V2    V   0.15451  0.84549  0.34549
V3    V   0.34549  0.15451  0.84549
V4    V   0.34549  0.34549  0.34549
V5    V   0.65451  0.65451  0.65451
V6    V   0.65451  0.84549  0.15451
V7    V   0.84549  0.15451  0.65451
V8    V   0.84549  0.34549  0.15451
E1    E   0.00000  0.00000  0.50000
E2    E   0.00000  0.50000  0.00000
E3    E   0.09549  0.15451  0.75000
E4    E   0.09549  0.34549  0.25000
E5    E   0.15451  0.75000  0.09549
E6    E   0.15451  0.75000  0.59549
E7    E   0.25000  0.09549  0.34549
E8    E   0.25000  0.40451  0.84549
E9    E   0.25000  0.59549  0.34549
E10   E   0.25000  0.90451  0.84549
E11   E   0.34549  0.25000  0.09549
E12   E   0.34549  0.25000  0.59549
E13   E   0.40451  0.65451  0.75000
E14   E   0.40451  0.84549  0.25000
E15   E   0.50000  0.00000  0.00000
E16   E   0.50000  0.50000  0.50000
E17   E   0.59549  0.15451  0.75000
E18   E   0.59549  0.34549  0.25000
E19   E   0.65451  0.75000  0.40451
E20   E   0.65451  0.75000  0.90451
E21   E   0.75000  0.09549  0.15451
E22   E   0.75000  0.40451  0.65451
E23   E   0.75000  0.59549  0.15451
E24   E   0.75000  0.90451  0.65451
E25   E   0.84549  0.25000  0.40451
E26   E   0.84549  0.25000  0.90451
E27   E   0.90451  0.65451  0.75000
E28   E   0.90451  0.84549  0.25000
loop_
