data_svo_I4/mcm  hall_number: 425, V_con: 7
_audit_creation_date              2025-03-06
_audit_creation_method            'MOFbuilder_1.0'
_symmetry_space_group_name_H-M    'P1'
_symmetry_Int_Tables_number       1
_symmetry_cell_setting            triclinic
loop_
_symmetry_equiv_pos_as_xyz
  x,y,z
_cell_length_a                    19.3185
_cell_length_b                    19.3185
_cell_length_c                    38.612
_cell_angle_alpha                 90.0
_cell_angle_beta                  90.0
_cell_angle_gamma                 90.0
loop_
_atom_site_label
_atom_site_type_symbol
_atom_site_fract_x
_atom_site_fract_y
_atom_site_fract_z
V1    V   0.18301  0.31699  0.12949
V2    V   0.18301  0.31699  0.87051
V3    V   0.18301  0.68301  0.37051
V4    V   0.18301  0.68301  0.62949
V5    V   0.31699  0.18301  0.37051
V6    V   0.31699  0.18301  0.62949
V7    V   0.31699  0.81699  0.12949
V8    V   0.31699  0.81699  0.87051
V9    V   0.68301  0.18301  0.12949
V10   V   0.68301  0.18301  0.87051
V11   V   0.68301  0.81699  0.37051
V12   V   0.68301  0.81699  0.62949
V13   V   0.81699  0.31699  0.37051
V14   V   0.81699  0.31699  0.62949
V15   V   0.81699  0.68301  0.12949
V16   V   0.81699  0.68301  0.87051
E1    E   0.00000  0.50000  0.12949
E2    E   0.00000  0.50000  0.37051
E3    E   0.00000  0.50000  0.62949
E4    E   0.00000  0.50000  0.87051
E5    E   0.06699  0.25000  0.37051
E6    E   0.06699  0.25000  0.62949
E7    E   0.06699  0.75000  0.12949
E8    E   0.06699  0.75000  0.87051
E9    E   0.18301  0.31699  0.00000
E10   E   0.18301  0.68301  0.50000
E11   E   0.25000  0.06699  0.12949
E12   E   0.25000  0.06699  0.87051
E13   E   0.25000  0.25000  0.25000
E14   E   0.25000  0.25000  0.75000
E15   E   0.25000  0.43301  0.37051
E16   E   0.25000  0.43301  0.62949
E17   E   0.25000  0.56699  0.12949
E18   E   0.25000  0.56699  0.87051
E19   E   0.25000  0.75000  0.25000
E20   E   0.25000  0.75000  0.75000
E21   E   0.25000  0.93301  0.37051
E22   E   0.25000  0.93301  0.62949
E23   E   0.31699  0.18301  0.50000
E24   E   0.31699  0.81699  0.00000
E25   E   0.43301  0.25000  0.12949
E26   E   0.43301  0.25000  0.87051
E27   E   0.43301  0.75000  0.37051
E28   E   0.43301  0.75000  0.62949
E29   E   0.50000  0.00000  0.12949
E30   E   0.50000  0.00000  0.37051
E31   E   0.50000  0.00000  0.62949
E32   E   0.50000  0.00000  0.87051
E33   E   0.56699  0.25000  0.37051
E34   E   0.56699  0.25000  0.62949
E35   E   0.56699  0.75000  0.12949
E36   E   0.56699  0.75000  0.87051
E37   E   0.68301  0.18301  0.00000
E38   E   0.68301  0.81699  0.50000
E39   E   0.75000  0.06699  0.37051
E40   E   0.75000  0.06699  0.62949
E41   E   0.75000  0.25000  0.25000
E42   E   0.75000  0.25000  0.75000
E43   E   0.75000  0.43301  0.12949
E44   E   0.75000  0.43301  0.87051
E45   E   0.75000  0.56699  0.37051
E46   E   0.75000  0.56699  0.62949
E47   E   0.75000  0.75000  0.25000
E48   E   0.75000  0.75000  0.75000
E49   E   0.75000  0.93301  0.12949
E50   E   0.75000  0.93301  0.87051
E51   E   0.81699  0.31699  0.50000
E52   E   0.81699  0.68301  0.00000
E53   E   0.93301  0.25000  0.12949
E54   E   0.93301  0.25000  0.87051
E55   E   0.93301  0.75000  0.37051
E56   E   0.93301  0.75000  0.62949
loop_
