data_svq_I4/mcm  hall_number: 425, V_con: 7
_audit_creation_date              2025-03-06
_audit_creation_method            'MOFbuilder_1.0'
_symmetry_space_group_name_H-M    'P1'
_symmetry_Int_Tables_number       1
_symmetry_cell_setting            triclinic
loop_
_symmetry_equiv_pos_as_xyz
  x,y,z
_cell_length_a                    32.619600000000005
_cell_length_b                    32.619600000000005
_cell_length_c                    16.817999999999998
_cell_angle_alpha                 90.0
_cell_angle_beta                  90.0
_cell_angle_gamma                 90.0
loop_
_atom_site_label
_atom_site_type_symbol
_atom_site_fract_x
_atom_site_fract_y
_atom_site_fract_z
V1    V   0.08295  0.20027  0.00000
V2    V   0.08295  0.79973  0.50000
V3    V   0.20027  0.08295  0.50000
V4    V   0.20027  0.91705  0.00000
V5    V   0.29973  0.41705  0.00000
V6    V   0.29973  0.58295  0.50000
V7    V   0.41705  0.29973  0.50000
V8    V   0.41705  0.70027  0.00000
V9    V   0.58295  0.29973  0.00000
V10   V   0.58295  0.70027  0.50000
V11   V   0.70027  0.41705  0.50000
V12   V   0.70027  0.58295  0.00000
V13   V   0.79973  0.08295  0.00000
V14   V   0.79973  0.91705  0.50000
V15   V   0.91705  0.20027  0.50000
V16   V   0.91705  0.79973  0.00000
E1    E   0.00000  0.20027  0.25000
E2    E   0.00000  0.20027  0.75000
E3    E   0.00000  0.79973  0.25000
E4    E   0.00000  0.79973  0.75000
E5    E   0.05866  0.14161  0.50000
E6    E   0.05866  0.85839  0.00000
E7    E   0.14161  0.05866  0.00000
E8    E   0.14161  0.14161  0.25000
E9    E   0.14161  0.14161  0.75000
E10   E   0.14161  0.85839  0.25000
E11   E   0.14161  0.85839  0.75000
E12   E   0.14161  0.94134  0.50000
E13   E   0.19134  0.30866  0.00000
E14   E   0.19134  0.69134  0.50000
E15   E   0.20027  0.00000  0.25000
E16   E   0.20027  0.00000  0.75000
E17   E   0.29973  0.50000  0.25000
E18   E   0.29973  0.50000  0.75000
E19   E   0.30866  0.19134  0.50000
E20   E   0.30866  0.80866  0.00000
E21   E   0.35839  0.35839  0.25000
E22   E   0.35839  0.35839  0.75000
E23   E   0.35839  0.44134  0.50000
E24   E   0.35839  0.55866  0.00000
E25   E   0.35839  0.64161  0.25000
E26   E   0.35839  0.64161  0.75000
E27   E   0.44134  0.35839  0.00000
E28   E   0.44134  0.64161  0.50000
E29   E   0.50000  0.29973  0.25000
E30   E   0.50000  0.29973  0.75000
E31   E   0.50000  0.70027  0.25000
E32   E   0.50000  0.70027  0.75000
E33   E   0.55866  0.35839  0.50000
E34   E   0.55866  0.64161  0.00000
E35   E   0.64161  0.35839  0.25000
E36   E   0.64161  0.35839  0.75000
E37   E   0.64161  0.44134  0.00000
E38   E   0.64161  0.55866  0.50000
E39   E   0.64161  0.64161  0.25000
E40   E   0.64161  0.64161  0.75000
E41   E   0.69134  0.19134  0.00000
E42   E   0.69134  0.80866  0.50000
E43   E   0.70027  0.50000  0.25000
E44   E   0.70027  0.50000  0.75000
E45   E   0.79973  0.00000  0.25000
E46   E   0.79973  0.00000  0.75000
E47   E   0.80866  0.30866  0.50000
E48   E   0.80866  0.69134  0.00000
E49   E   0.85839  0.05866  0.50000
E50   E   0.85839  0.14161  0.25000
E51   E   0.85839  0.14161  0.75000
E52   E   0.85839  0.85839  0.25000
E53   E   0.85839  0.85839  0.75000
E54   E   0.85839  0.94134  0.00000
E55   E   0.94134  0.14161  0.00000
E56   E   0.94134  0.85839  0.50000
loop_
