data_svu_Fd-3:2  hall_number: 499, V_con: 7
_audit_creation_date              2025-03-06
_audit_creation_method            'MOFbuilder_1.0'
_symmetry_space_group_name_H-M    'P1'
_symmetry_Int_Tables_number       1
_symmetry_cell_setting            triclinic
loop_
_symmetry_equiv_pos_as_xyz
  x,y,z
_cell_length_a                    53.7634
_cell_length_b                    53.7634
_cell_length_c                    53.7634
_cell_angle_alpha                 90.0
_cell_angle_beta                  90.0
_cell_angle_gamma                 90.0
loop_
_atom_site_label
_atom_site_type_symbol
_atom_site_fract_x
_atom_site_fract_y
_atom_site_fract_z
V1    V   0.02548  0.37500  0.28200
V2    V   0.02548  0.37500  0.46800
V3    V   0.02548  0.87500  0.78200
V4    V   0.02548  0.87500  0.96800
V5    V   0.03200  0.27548  0.12500
V6    V   0.03200  0.47452  0.62500
V7    V   0.03200  0.77548  0.62500
V8    V   0.03200  0.97452  0.12500
V9    V   0.12500  0.03200  0.27548
V10   V   0.12500  0.03200  0.97452
V11   V   0.12500  0.21800  0.27548
V12   V   0.12500  0.21800  0.97452
V13   V   0.12500  0.53200  0.47452
V14   V   0.12500  0.53200  0.77548
V15   V   0.12500  0.71800  0.47452
V16   V   0.12500  0.71800  0.77548
V17   V   0.21800  0.27548  0.12500
V18   V   0.21800  0.47452  0.62500
V19   V   0.21800  0.77548  0.62500
V20   V   0.21800  0.97452  0.12500
V21   V   0.22452  0.37500  0.78200
V22   V   0.22452  0.37500  0.96800
V23   V   0.22452  0.87500  0.28200
V24   V   0.22452  0.87500  0.46800
V25   V   0.27548  0.12500  0.03200
V26   V   0.27548  0.12500  0.21800
V27   V   0.27548  0.62500  0.53200
V28   V   0.27548  0.62500  0.71800
V29   V   0.28200  0.02548  0.37500
V30   V   0.28200  0.22452  0.87500
V31   V   0.28200  0.52548  0.87500
V32   V   0.28200  0.72452  0.37500
V33   V   0.37500  0.28200  0.02548
V34   V   0.37500  0.28200  0.72452
V35   V   0.37500  0.46800  0.02548
V36   V   0.37500  0.46800  0.72452
V37   V   0.37500  0.78200  0.22452
V38   V   0.37500  0.78200  0.52548
V39   V   0.37500  0.96800  0.22452
V40   V   0.37500  0.96800  0.52548
V41   V   0.46800  0.02548  0.37500
V42   V   0.46800  0.22452  0.87500
V43   V   0.46800  0.52548  0.87500
V44   V   0.46800  0.72452  0.37500
V45   V   0.47452  0.12500  0.53200
V46   V   0.47452  0.12500  0.71800
V47   V   0.47452  0.62500  0.03200
V48   V   0.47452  0.62500  0.21800
V49   V   0.52548  0.37500  0.78200
V50   V   0.52548  0.37500  0.96800
V51   V   0.52548  0.87500  0.28200
V52   V   0.52548  0.87500  0.46800
V53   V   0.53200  0.27548  0.62500
V54   V   0.53200  0.47452  0.12500
V55   V   0.53200  0.77548  0.12500
V56   V   0.53200  0.97452  0.62500
V57   V   0.62500  0.03200  0.47452
V58   V   0.62500  0.03200  0.77548
V59   V   0.62500  0.21800  0.47452
V60   V   0.62500  0.21800  0.77548
V61   V   0.62500  0.53200  0.27548
V62   V   0.62500  0.53200  0.97452
V63   V   0.62500  0.71800  0.27548
V64   V   0.62500  0.71800  0.97452
V65   V   0.71800  0.27548  0.62500
V66   V   0.71800  0.47452  0.12500
V67   V   0.71800  0.77548  0.12500
V68   V   0.71800  0.97452  0.62500
V69   V   0.72452  0.37500  0.28200
V70   V   0.72452  0.37500  0.46800
V71   V   0.72452  0.87500  0.78200
V72   V   0.72452  0.87500  0.96800
V73   V   0.77548  0.12500  0.53200
V74   V   0.77548  0.12500  0.71800
V75   V   0.77548  0.62500  0.03200
V76   V   0.77548  0.62500  0.21800
V77   V   0.78200  0.02548  0.87500
V78   V   0.78200  0.22452  0.37500
V79   V   0.78200  0.52548  0.37500
V80   V   0.78200  0.72452  0.87500
V81   V   0.87500  0.28200  0.22452
V82   V   0.87500  0.28200  0.52548
V83   V   0.87500  0.46800  0.22452
V84   V   0.87500  0.46800  0.52548
V85   V   0.87500  0.78200  0.02548
V86   V   0.87500  0.78200  0.72452
V87   V   0.87500  0.96800  0.02548
V88   V   0.87500  0.96800  0.72452
V89   V   0.96800  0.02548  0.87500
V90   V   0.96800  0.22452  0.37500
V91   V   0.96800  0.52548  0.37500
V92   V   0.96800  0.72452  0.87500
V93   V   0.97452  0.12500  0.03200
V94   V   0.97452  0.12500  0.21800
V95   V   0.97452  0.62500  0.53200
V96   V   0.97452  0.62500  0.71800
E1    E   0.00326  0.04976  0.07850
E2    E   0.00326  0.04976  0.17150
E3    E   0.00326  0.20024  0.07850
E4    E   0.00326  0.20024  0.17150
E5    E   0.00326  0.54976  0.57850
E6    E   0.00326  0.54976  0.67150
E7    E   0.00326  0.70024  0.57850
E8    E   0.00326  0.70024  0.67150
E9    E   0.02548  0.37500  0.37500
E10   E   0.02548  0.87500  0.87500
E11   E   0.02874  0.32524  0.20350
E12   E   0.02874  0.42476  0.54650
E13   E   0.02874  0.82524  0.70350
E14   E   0.02874  0.92476  0.04650
E15   E   0.04650  0.02874  0.92476
E16   E   0.04650  0.22126  0.32524
E17   E   0.04650  0.52874  0.42476
E18   E   0.04650  0.72126  0.82524
E19   E   0.04976  0.07850  0.00326
E20   E   0.04976  0.07850  0.24674
E21   E   0.04976  0.17150  0.00326
E22   E   0.04976  0.17150  0.24674
E23   E   0.04976  0.57850  0.50326
E24   E   0.04976  0.57850  0.74674
E25   E   0.04976  0.67150  0.50326
E26   E   0.04976  0.67150  0.74674
E27   E   0.07524  0.29650  0.27874
E28   E   0.07524  0.45350  0.47126
E29   E   0.07524  0.79650  0.77874
E30   E   0.07524  0.95350  0.97126
E31   E   0.07850  0.00326  0.04976
E32   E   0.07850  0.00326  0.20024
E33   E   0.07850  0.24674  0.04976
E34   E   0.07850  0.24674  0.20024
E35   E   0.07850  0.50326  0.54976
E36   E   0.07850  0.50326  0.70024
E37   E   0.07850  0.74674  0.54976
E38   E   0.07850  0.74674  0.70024
E39   E   0.12500  0.12500  0.27548
E40   E   0.12500  0.12500  0.97452
E41   E   0.12500  0.27548  0.12500
E42   E   0.12500  0.47452  0.62500
E43   E   0.12500  0.62500  0.47452
E44   E   0.12500  0.62500  0.77548
E45   E   0.12500  0.77548  0.62500
E46   E   0.12500  0.97452  0.12500
E47   E   0.17150  0.00326  0.04976
E48   E   0.17150  0.00326  0.20024
E49   E   0.17150  0.24674  0.04976
E50   E   0.17150  0.24674  0.20024
E51   E   0.17150  0.50326  0.54976
E52   E   0.17150  0.50326  0.70024
E53   E   0.17150  0.74674  0.54976
E54   E   0.17150  0.74674  0.70024
E55   E   0.17476  0.29650  0.97126
E56   E   0.17476  0.45350  0.77874
E57   E   0.17476  0.79650  0.47126
E58   E   0.17476  0.95350  0.27874
E59   E   0.20024  0.07850  0.00326
E60   E   0.20024  0.07850  0.24674
E61   E   0.20024  0.17150  0.00326
E62   E   0.20024  0.17150  0.24674
E63   E   0.20024  0.57850  0.50326
E64   E   0.20024  0.57850  0.74674
E65   E   0.20024  0.67150  0.50326
E66   E   0.20024  0.67150  0.74674
E67   E   0.20350  0.02874  0.32524
E68   E   0.20350  0.22126  0.92476
E69   E   0.20350  0.52874  0.82524
E70   E   0.20350  0.72126  0.42476
E71   E   0.22126  0.32524  0.04650
E72   E   0.22126  0.42476  0.70350
E73   E   0.22126  0.82524  0.54650
E74   E   0.22126  0.92476  0.20350
E75   E   0.22452  0.37500  0.87500
E76   E   0.22452  0.87500  0.37500
E77   E   0.24674  0.04976  0.07850
E78   E   0.24674  0.04976  0.17150
E79   E   0.24674  0.20024  0.07850
E80   E   0.24674  0.20024  0.17150
E81   E   0.24674  0.54976  0.57850
E82   E   0.24674  0.54976  0.67150
E83   E   0.24674  0.70024  0.57850
E84   E   0.24674  0.70024  0.67150
E85   E   0.25326  0.29976  0.82850
E86   E   0.25326  0.29976  0.92150
E87   E   0.25326  0.45024  0.82850
E88   E   0.25326  0.45024  0.92150
E89   E   0.25326  0.79976  0.32850
E90   E   0.25326  0.79976  0.42150
E91   E   0.25326  0.95024  0.32850
E92   E   0.25326  0.95024  0.42150
E93   E   0.27548  0.12500  0.12500
E94   E   0.27548  0.62500  0.62500
E95   E   0.27874  0.07524  0.29650
E96   E   0.27874  0.17476  0.95350
E97   E   0.27874  0.57524  0.79650
E98   E   0.27874  0.67476  0.45350
E99   E   0.29650  0.27874  0.07524
E100  E   0.29650  0.47126  0.67476
E101  E   0.29650  0.77874  0.57524
E102  E   0.29650  0.97126  0.17476
E103  E   0.29976  0.32850  0.75326
E104  E   0.29976  0.32850  0.99674
E105  E   0.29976  0.42150  0.75326
E106  E   0.29976  0.42150  0.99674
E107  E   0.29976  0.82850  0.25326
E108  E   0.29976  0.82850  0.49674
E109  E   0.29976  0.92150  0.25326
E110  E   0.29976  0.92150  0.49674
E111  E   0.32524  0.04650  0.22126
E112  E   0.32524  0.20350  0.02874
E113  E   0.32524  0.54650  0.72126
E114  E   0.32524  0.70350  0.52874
E115  E   0.32850  0.25326  0.79976
E116  E   0.32850  0.25326  0.95024
E117  E   0.32850  0.49674  0.79976
E118  E   0.32850  0.49674  0.95024
E119  E   0.32850  0.75326  0.29976
E120  E   0.32850  0.75326  0.45024
E121  E   0.32850  0.99674  0.29976
E122  E   0.32850  0.99674  0.45024
E123  E   0.37500  0.02548  0.37500
E124  E   0.37500  0.22452  0.87500
E125  E   0.37500  0.37500  0.02548
E126  E   0.37500  0.37500  0.72452
E127  E   0.37500  0.52548  0.87500
E128  E   0.37500  0.72452  0.37500
E129  E   0.37500  0.87500  0.22452
E130  E   0.37500  0.87500  0.52548
E131  E   0.42150  0.25326  0.79976
E132  E   0.42150  0.25326  0.95024
E133  E   0.42150  0.49674  0.79976
E134  E   0.42150  0.49674  0.95024
E135  E   0.42150  0.75326  0.29976
E136  E   0.42150  0.75326  0.45024
E137  E   0.42150  0.99674  0.29976
E138  E   0.42150  0.99674  0.45024
E139  E   0.42476  0.04650  0.52874
E140  E   0.42476  0.20350  0.72126
E141  E   0.42476  0.54650  0.02874
E142  E   0.42476  0.70350  0.22126
E143  E   0.45024  0.32850  0.75326
E144  E   0.45024  0.32850  0.99674
E145  E   0.45024  0.42150  0.75326
E146  E   0.45024  0.42150  0.99674
E147  E   0.45024  0.82850  0.25326
E148  E   0.45024  0.82850  0.49674
E149  E   0.45024  0.92150  0.25326
E150  E   0.45024  0.92150  0.49674
E151  E   0.45350  0.27874  0.67476
E152  E   0.45350  0.47126  0.07524
E153  E   0.45350  0.77874  0.17476
E154  E   0.45350  0.97126  0.57524
E155  E   0.47126  0.07524  0.45350
E156  E   0.47126  0.17476  0.79650
E157  E   0.47126  0.57524  0.95350
E158  E   0.47126  0.67476  0.29650
E159  E   0.47452  0.12500  0.62500
E160  E   0.47452  0.62500  0.12500
E161  E   0.49674  0.29976  0.82850
E162  E   0.49674  0.29976  0.92150
E163  E   0.49674  0.45024  0.82850
E164  E   0.49674  0.45024  0.92150
E165  E   0.49674  0.79976  0.32850
E166  E   0.49674  0.79976  0.42150
E167  E   0.49674  0.95024  0.32850
E168  E   0.49674  0.95024  0.42150
E169  E   0.50326  0.04976  0.57850
E170  E   0.50326  0.04976  0.67150
E171  E   0.50326  0.20024  0.57850
E172  E   0.50326  0.20024  0.67150
E173  E   0.50326  0.54976  0.07850
E174  E   0.50326  0.54976  0.17150
E175  E   0.50326  0.70024  0.07850
E176  E   0.50326  0.70024  0.17150
E177  E   0.52548  0.37500  0.87500
E178  E   0.52548  0.87500  0.37500
E179  E   0.52874  0.32524  0.70350
E180  E   0.52874  0.42476  0.04650
E181  E   0.52874  0.82524  0.20350
E182  E   0.52874  0.92476  0.54650
E183  E   0.54650  0.02874  0.42476
E184  E   0.54650  0.22126  0.82524
E185  E   0.54650  0.52874  0.92476
E186  E   0.54650  0.72126  0.32524
E187  E   0.54976  0.07850  0.50326
E188  E   0.54976  0.07850  0.74674
E189  E   0.54976  0.17150  0.50326
E190  E   0.54976  0.17150  0.74674
E191  E   0.54976  0.57850  0.00326
E192  E   0.54976  0.57850  0.24674
E193  E   0.54976  0.67150  0.00326
E194  E   0.54976  0.67150  0.24674
E195  E   0.57524  0.29650  0.77874
E196  E   0.57524  0.45350  0.97126
E197  E   0.57524  0.79650  0.27874
E198  E   0.57524  0.95350  0.47126
E199  E   0.57850  0.00326  0.54976
E200  E   0.57850  0.00326  0.70024
E201  E   0.57850  0.24674  0.54976
E202  E   0.57850  0.24674  0.70024
E203  E   0.57850  0.50326  0.04976
E204  E   0.57850  0.50326  0.20024
E205  E   0.57850  0.74674  0.04976
E206  E   0.57850  0.74674  0.20024
E207  E   0.62500  0.12500  0.47452
E208  E   0.62500  0.12500  0.77548
E209  E   0.62500  0.27548  0.62500
E210  E   0.62500  0.47452  0.12500
E211  E   0.62500  0.62500  0.27548
E212  E   0.62500  0.62500  0.97452
E213  E   0.62500  0.77548  0.12500
E214  E   0.62500  0.97452  0.62500
E215  E   0.67150  0.00326  0.54976
E216  E   0.67150  0.00326  0.70024
E217  E   0.67150  0.24674  0.54976
E218  E   0.67150  0.24674  0.70024
E219  E   0.67150  0.50326  0.04976
E220  E   0.67150  0.50326  0.20024
E221  E   0.67150  0.74674  0.04976
E222  E   0.67150  0.74674  0.20024
E223  E   0.67476  0.29650  0.47126
E224  E   0.67476  0.45350  0.27874
E225  E   0.67476  0.79650  0.97126
E226  E   0.67476  0.95350  0.77874
E227  E   0.70024  0.07850  0.50326
E228  E   0.70024  0.07850  0.74674
E229  E   0.70024  0.17150  0.50326
E230  E   0.70024  0.17150  0.74674
E231  E   0.70024  0.57850  0.00326
E232  E   0.70024  0.57850  0.24674
E233  E   0.70024  0.67150  0.00326
E234  E   0.70024  0.67150  0.24674
E235  E   0.70350  0.02874  0.82524
E236  E   0.70350  0.22126  0.42476
E237  E   0.70350  0.52874  0.32524
E238  E   0.70350  0.72126  0.92476
E239  E   0.72126  0.32524  0.54650
E240  E   0.72126  0.42476  0.20350
E241  E   0.72126  0.82524  0.04650
E242  E   0.72126  0.92476  0.70350
E243  E   0.72452  0.37500  0.37500
E244  E   0.72452  0.87500  0.87500
E245  E   0.74674  0.04976  0.57850
E246  E   0.74674  0.04976  0.67150
E247  E   0.74674  0.20024  0.57850
E248  E   0.74674  0.20024  0.67150
E249  E   0.74674  0.54976  0.07850
E250  E   0.74674  0.54976  0.17150
E251  E   0.74674  0.70024  0.07850
E252  E   0.74674  0.70024  0.17150
E253  E   0.75326  0.29976  0.32850
E254  E   0.75326  0.29976  0.42150
E255  E   0.75326  0.45024  0.32850
E256  E   0.75326  0.45024  0.42150
E257  E   0.75326  0.79976  0.82850
E258  E   0.75326  0.79976  0.92150
E259  E   0.75326  0.95024  0.82850
E260  E   0.75326  0.95024  0.92150
E261  E   0.77548  0.12500  0.62500
E262  E   0.77548  0.62500  0.12500
E263  E   0.77874  0.07524  0.79650
E264  E   0.77874  0.17476  0.45350
E265  E   0.77874  0.57524  0.29650
E266  E   0.77874  0.67476  0.95350
E267  E   0.79650  0.27874  0.57524
E268  E   0.79650  0.47126  0.17476
E269  E   0.79650  0.77874  0.07524
E270  E   0.79650  0.97126  0.67476
E271  E   0.79976  0.32850  0.25326
E272  E   0.79976  0.32850  0.49674
E273  E   0.79976  0.42150  0.25326
E274  E   0.79976  0.42150  0.49674
E275  E   0.79976  0.82850  0.75326
E276  E   0.79976  0.82850  0.99674
E277  E   0.79976  0.92150  0.75326
E278  E   0.79976  0.92150  0.99674
E279  E   0.82524  0.04650  0.72126
E280  E   0.82524  0.20350  0.52874
E281  E   0.82524  0.54650  0.22126
E282  E   0.82524  0.70350  0.02874
E283  E   0.82850  0.25326  0.29976
E284  E   0.82850  0.25326  0.45024
E285  E   0.82850  0.49674  0.29976
E286  E   0.82850  0.49674  0.45024
E287  E   0.82850  0.75326  0.79976
E288  E   0.82850  0.75326  0.95024
E289  E   0.82850  0.99674  0.79976
E290  E   0.82850  0.99674  0.95024
E291  E   0.87500  0.02548  0.87500
E292  E   0.87500  0.22452  0.37500
E293  E   0.87500  0.37500  0.22452
E294  E   0.87500  0.37500  0.52548
E295  E   0.87500  0.52548  0.37500
E296  E   0.87500  0.72452  0.87500
E297  E   0.87500  0.87500  0.02548
E298  E   0.87500  0.87500  0.72452
E299  E   0.92150  0.25326  0.29976
E300  E   0.92150  0.25326  0.45024
E301  E   0.92150  0.49674  0.29976
E302  E   0.92150  0.49674  0.45024
E303  E   0.92150  0.75326  0.79976
E304  E   0.92150  0.75326  0.95024
E305  E   0.92150  0.99674  0.79976
E306  E   0.92150  0.99674  0.95024
E307  E   0.92476  0.04650  0.02874
E308  E   0.92476  0.20350  0.22126
E309  E   0.92476  0.54650  0.52874
E310  E   0.92476  0.70350  0.72126
E311  E   0.95024  0.32850  0.25326
E312  E   0.95024  0.32850  0.49674
E313  E   0.95024  0.42150  0.25326
E314  E   0.95024  0.42150  0.49674
E315  E   0.95024  0.82850  0.75326
E316  E   0.95024  0.82850  0.99674
E317  E   0.95024  0.92150  0.75326
E318  E   0.95024  0.92150  0.99674
E319  E   0.95350  0.27874  0.17476
E320  E   0.95350  0.47126  0.57524
E321  E   0.95350  0.77874  0.67476
E322  E   0.95350  0.97126  0.07524
E323  E   0.97126  0.07524  0.95350
E324  E   0.97126  0.17476  0.29650
E325  E   0.97126  0.57524  0.45350
E326  E   0.97126  0.67476  0.79650
E327  E   0.97452  0.12500  0.12500
E328  E   0.97452  0.62500  0.62500
E329  E   0.99674  0.29976  0.32850
E330  E   0.99674  0.29976  0.42150
E331  E   0.99674  0.45024  0.32850
E332  E   0.99674  0.45024  0.42150
E333  E   0.99674  0.79976  0.82850
E334  E   0.99674  0.79976  0.92150
E335  E   0.99674  0.95024  0.82850
E336  E   0.99674  0.95024  0.92150
loop_
