data_svw_Ia-3  hall_number: 502, V_con: 7
_audit_creation_date              2025-03-06
_audit_creation_method            'MOFbuilder_1.0'
_symmetry_space_group_name_H-M    'P1'
_symmetry_Int_Tables_number       1
_symmetry_cell_setting            triclinic
loop_
_symmetry_equiv_pos_as_xyz
  x,y,z
_cell_length_a                    34.9933
_cell_length_b                    34.9933
_cell_length_c                    34.9933
_cell_angle_alpha                 90.0
_cell_angle_beta                  90.0
_cell_angle_gamma                 90.0
loop_
_atom_site_label
_atom_site_type_symbol
_atom_site_fract_x
_atom_site_fract_y
_atom_site_fract_z
V1    V   0.06440  0.10893  0.65754
V2    V   0.06440  0.39107  0.15754
V3    V   0.06440  0.60893  0.34246
V4    V   0.06440  0.89107  0.84246
V5    V   0.10893  0.15754  0.93560
V6    V   0.10893  0.34246  0.43560
V7    V   0.10893  0.65754  0.06440
V8    V   0.10893  0.84246  0.56440
V9    V   0.15754  0.06440  0.39107
V10   V   0.15754  0.43560  0.89107
V11   V   0.15754  0.56440  0.60893
V12   V   0.15754  0.93560  0.10893
V13   V   0.34246  0.06440  0.60893
V14   V   0.34246  0.43560  0.10893
V15   V   0.34246  0.56440  0.39107
V16   V   0.34246  0.93560  0.89107
V17   V   0.39107  0.15754  0.06440
V18   V   0.39107  0.34246  0.56440
V19   V   0.39107  0.65754  0.93560
V20   V   0.39107  0.84246  0.43560
V21   V   0.43560  0.10893  0.34246
V22   V   0.43560  0.39107  0.84246
V23   V   0.43560  0.60893  0.65754
V24   V   0.43560  0.89107  0.15754
V25   V   0.56440  0.10893  0.84246
V26   V   0.56440  0.39107  0.34246
V27   V   0.56440  0.60893  0.15754
V28   V   0.56440  0.89107  0.65754
V29   V   0.60893  0.15754  0.56440
V30   V   0.60893  0.34246  0.06440
V31   V   0.60893  0.65754  0.43560
V32   V   0.60893  0.84246  0.93560
V33   V   0.65754  0.06440  0.10893
V34   V   0.65754  0.43560  0.60893
V35   V   0.65754  0.56440  0.89107
V36   V   0.65754  0.93560  0.39107
V37   V   0.84246  0.06440  0.89107
V38   V   0.84246  0.43560  0.39107
V39   V   0.84246  0.56440  0.10893
V40   V   0.84246  0.93560  0.60893
V41   V   0.89107  0.15754  0.43560
V42   V   0.89107  0.34246  0.93560
V43   V   0.89107  0.65754  0.56440
V44   V   0.89107  0.84246  0.06440
V45   V   0.93560  0.10893  0.15754
V46   V   0.93560  0.39107  0.65754
V47   V   0.93560  0.60893  0.84246
V48   V   0.93560  0.89107  0.34246
E1    E   0.00000  0.25000  0.43560
E2    E   0.00000  0.25000  0.93560
E3    E   0.00000  0.75000  0.06440
E4    E   0.00000  0.75000  0.56440
E5    E   0.02227  0.13323  0.04657
E6    E   0.02227  0.36677  0.54657
E7    E   0.02227  0.63323  0.95343
E8    E   0.02227  0.86677  0.45343
E9    E   0.02430  0.11097  0.41333
E10   E   0.02430  0.38903  0.91333
E11   E   0.02430  0.61097  0.58667
E12   E   0.02430  0.88903  0.08667
E13   E   0.04657  0.02227  0.13323
E14   E   0.04657  0.47773  0.63323
E15   E   0.04657  0.52227  0.86677
E16   E   0.04657  0.97773  0.36677
E17   E   0.06440  0.00000  0.75000
E18   E   0.06440  0.50000  0.25000
E19   E   0.08667  0.13323  0.79657
E20   E   0.08667  0.36677  0.29657
E21   E   0.08667  0.63323  0.20343
E22   E   0.08667  0.86677  0.70343
E23   E   0.08667  0.02430  0.88903
E24   E   0.08667  0.47570  0.38903
E25   E   0.08667  0.52430  0.11097
E26   E   0.08667  0.97570  0.61097
E27   E   0.11097  0.08667  0.52430
E28   E   0.11097  0.41333  0.02430
E29   E   0.11097  0.58667  0.47570
E30   E   0.11097  0.91333  0.97570
E31   E   0.13323  0.04657  0.02227
E32   E   0.13323  0.20343  0.41333
E33   E   0.13323  0.29657  0.91333
E34   E   0.13323  0.45343  0.52227
E35   E   0.13323  0.54657  0.97773
E36   E   0.13323  0.70343  0.58667
E37   E   0.13323  0.79657  0.08667
E38   E   0.13323  0.95343  0.47773
E39   E   0.20343  0.08667  0.63323
E40   E   0.20343  0.41333  0.13323
E41   E   0.20343  0.58667  0.36677
E42   E   0.20343  0.91333  0.86677
E43   E   0.25000  0.06440  0.50000
E44   E   0.25000  0.43560  0.00000
E45   E   0.25000  0.56440  0.50000
E46   E   0.25000  0.93560  0.00000
E47   E   0.29657  0.08667  0.36677
E48   E   0.29657  0.41333  0.86677
E49   E   0.29657  0.58667  0.63323
E50   E   0.29657  0.91333  0.13323
E51   E   0.36677  0.04657  0.97773
E52   E   0.36677  0.20343  0.58667
E53   E   0.36677  0.29657  0.08667
E54   E   0.36677  0.45343  0.47773
E55   E   0.36677  0.54657  0.02227
E56   E   0.36677  0.70343  0.41333
E57   E   0.36677  0.79657  0.91333
E58   E   0.36677  0.95343  0.52227
E59   E   0.38903  0.08667  0.47570
E60   E   0.38903  0.41333  0.97570
E61   E   0.38903  0.58667  0.52430
E62   E   0.38903  0.91333  0.02430
E63   E   0.41333  0.02430  0.11097
E64   E   0.41333  0.13323  0.20343
E65   E   0.41333  0.36677  0.70343
E66   E   0.41333  0.47570  0.61097
E67   E   0.41333  0.52430  0.88903
E68   E   0.41333  0.63323  0.79657
E69   E   0.41333  0.86677  0.29657
E70   E   0.41333  0.97570  0.38903
E71   E   0.43560  0.00000  0.25000
E72   E   0.43560  0.50000  0.75000
E73   E   0.45343  0.02227  0.86677
E74   E   0.45343  0.47773  0.36677
E75   E   0.45343  0.52227  0.13323
E76   E   0.45343  0.97773  0.63323
E77   E   0.47570  0.11097  0.58667
E78   E   0.47570  0.38903  0.08667
E79   E   0.47570  0.61097  0.41333
E80   E   0.47570  0.88903  0.91333
E81   E   0.47773  0.13323  0.95343
E82   E   0.47773  0.36677  0.45343
E83   E   0.47773  0.63323  0.04657
E84   E   0.47773  0.86677  0.54657
E85   E   0.50000  0.25000  0.06440
E86   E   0.50000  0.25000  0.56440
E87   E   0.50000  0.75000  0.43560
E88   E   0.50000  0.75000  0.93560
E89   E   0.52227  0.13323  0.45343
E90   E   0.52227  0.36677  0.95343
E91   E   0.52227  0.63323  0.54657
E92   E   0.52227  0.86677  0.04657
E93   E   0.52430  0.11097  0.08667
E94   E   0.52430  0.38903  0.58667
E95   E   0.52430  0.61097  0.91333
E96   E   0.52430  0.88903  0.41333
E97   E   0.54657  0.02227  0.36677
E98   E   0.54657  0.47773  0.86677
E99   E   0.54657  0.52227  0.63323
E100  E   0.54657  0.97773  0.13323
E101  E   0.56440  0.00000  0.75000
E102  E   0.56440  0.50000  0.25000
E103  E   0.58667  0.02430  0.61097
E104  E   0.58667  0.13323  0.70343
E105  E   0.58667  0.36677  0.20343
E106  E   0.58667  0.47570  0.11097
E107  E   0.58667  0.52430  0.38903
E108  E   0.58667  0.63323  0.29657
E109  E   0.58667  0.86677  0.79657
E110  E   0.58667  0.97570  0.88903
E111  E   0.61097  0.08667  0.97570
E112  E   0.61097  0.41333  0.47570
E113  E   0.61097  0.58667  0.02430
E114  E   0.61097  0.91333  0.52430
E115  E   0.63323  0.04657  0.47773
E116  E   0.63323  0.20343  0.08667
E117  E   0.63323  0.29657  0.58667
E118  E   0.63323  0.45343  0.97773
E119  E   0.63323  0.54657  0.52227
E120  E   0.63323  0.70343  0.91333
E121  E   0.63323  0.79657  0.41333
E122  E   0.63323  0.95343  0.02227
E123  E   0.70343  0.08667  0.86677
E124  E   0.70343  0.41333  0.36677
E125  E   0.70343  0.58667  0.13323
E126  E   0.70343  0.91333  0.63323
E127  E   0.75000  0.06440  0.00000
E128  E   0.75000  0.43560  0.50000
E129  E   0.75000  0.56440  0.00000
E130  E   0.75000  0.93560  0.50000
E131  E   0.79657  0.08667  0.13323
E132  E   0.79657  0.41333  0.63323
E133  E   0.79657  0.58667  0.86677
E134  E   0.79657  0.91333  0.36677
E135  E   0.86677  0.04657  0.52227
E136  E   0.86677  0.20343  0.91333
E137  E   0.86677  0.29657  0.41333
E138  E   0.86677  0.45343  0.02227
E139  E   0.86677  0.54657  0.47773
E140  E   0.86677  0.70343  0.08667
E141  E   0.86677  0.79657  0.58667
E142  E   0.86677  0.95343  0.97773
E143  E   0.88903  0.08667  0.02430
E144  E   0.88903  0.41333  0.52430
E145  E   0.88903  0.58667  0.97570
E146  E   0.88903  0.91333  0.47570
E147  E   0.91333  0.02430  0.38903
E148  E   0.91333  0.13323  0.29657
E149  E   0.91333  0.36677  0.79657
E150  E   0.91333  0.47570  0.88903
E151  E   0.91333  0.52430  0.61097
E152  E   0.91333  0.63323  0.70343
E153  E   0.91333  0.86677  0.20343
E154  E   0.91333  0.97570  0.11097
E155  E   0.93560  0.00000  0.25000
E156  E   0.93560  0.50000  0.75000
E157  E   0.95343  0.02227  0.63323
E158  E   0.95343  0.47773  0.13323
E159  E   0.95343  0.52227  0.36677
E160  E   0.95343  0.97773  0.86677
E161  E   0.97570  0.11097  0.91333
E162  E   0.97570  0.38903  0.41333
E163  E   0.97570  0.61097  0.08667
E164  E   0.97570  0.88903  0.58667
E165  E   0.97773  0.13323  0.54657
E166  E   0.97773  0.36677  0.04657
E167  E   0.97773  0.63323  0.45343
E168  E   0.97773  0.86677  0.95343
loop_
