data_svy_I-43d  hall_number: 516, V_con: 7
_audit_creation_date              2025-03-06
_audit_creation_method            'MOFbuilder_1.0'
_symmetry_space_group_name_H-M    'P1'
_symmetry_Int_Tables_number       1
_symmetry_cell_setting            triclinic
loop_
_symmetry_equiv_pos_as_xyz
  x,y,z
_cell_length_a                    34.955799999999996
_cell_length_b                    34.955799999999996
_cell_length_c                    34.955799999999996
_cell_angle_alpha                 90.0
_cell_angle_beta                  90.0
_cell_angle_gamma                 90.0
loop_
_atom_site_label
_atom_site_type_symbol
_atom_site_fract_x
_atom_site_fract_y
_atom_site_fract_z
V1    V   0.08051  0.13177  0.61001
V2    V   0.08051  0.86823  0.88999
V3    V   0.11001  0.41949  0.86823
V4    V   0.11001  0.58051  0.63177
V5    V   0.11823  0.33051  0.13999
V6    V   0.11823  0.66949  0.36001
V7    V   0.13177  0.38999  0.41949
V8    V   0.13177  0.61001  0.08051
V9    V   0.13999  0.11823  0.33051
V10   V   0.13999  0.88177  0.16949
V11   V   0.16949  0.13999  0.88177
V12   V   0.16949  0.86001  0.61823
V13   V   0.33051  0.13999  0.11823
V14   V   0.33051  0.86001  0.38177
V15   V   0.36001  0.11823  0.66949
V16   V   0.36001  0.88177  0.83051
V17   V   0.36823  0.38999  0.58051
V18   V   0.36823  0.61001  0.91949
V19   V   0.38177  0.33051  0.86001
V20   V   0.38177  0.66949  0.63999
V21   V   0.38999  0.41949  0.13177
V22   V   0.38999  0.58051  0.36823
V23   V   0.41949  0.13177  0.38999
V24   V   0.41949  0.86823  0.11001
V25   V   0.58051  0.36823  0.38999
V26   V   0.58051  0.63177  0.11001
V27   V   0.61001  0.08051  0.13177
V28   V   0.61001  0.91949  0.36823
V29   V   0.61823  0.16949  0.86001
V30   V   0.61823  0.83051  0.63999
V31   V   0.63177  0.11001  0.58051
V32   V   0.63177  0.88999  0.91949
V33   V   0.63999  0.38177  0.66949
V34   V   0.63999  0.61823  0.83051
V35   V   0.66949  0.36001  0.11823
V36   V   0.66949  0.63999  0.38177
V37   V   0.83051  0.36001  0.88177
V38   V   0.83051  0.63999  0.61823
V39   V   0.86001  0.38177  0.33051
V40   V   0.86001  0.61823  0.16949
V41   V   0.86823  0.11001  0.41949
V42   V   0.86823  0.88999  0.08051
V43   V   0.88177  0.16949  0.13999
V44   V   0.88177  0.83051  0.36001
V45   V   0.88999  0.08051  0.86823
V46   V   0.88999  0.91949  0.63177
V47   V   0.91949  0.36823  0.61001
V48   V   0.91949  0.63177  0.88999
E1    E   0.00000  0.25000  0.13999
E2    E   0.00000  0.25000  0.61001
E3    E   0.00000  0.75000  0.36001
E4    E   0.00000  0.75000  0.88999
E5    E   0.00411  0.11412  0.37500
E6    E   0.00411  0.88588  0.12500
E7    E   0.01475  0.47437  0.62089
E8    E   0.01475  0.52563  0.87911
E9    E   0.02563  0.37911  0.51475
E10   E   0.02563  0.62089  0.98525
E11   E   0.02974  0.11025  0.87500
E12   E   0.02974  0.88975  0.62500
E13   E   0.11001  0.50000  0.75000
E14   E   0.11025  0.12500  0.47026
E15   E   0.11025  0.87500  0.02974
E16   E   0.11412  0.37500  0.00411
E17   E   0.11412  0.62500  0.49589
E18   E   0.12089  0.48525  0.52563
E19   E   0.12089  0.51475  0.97437
E20   E   0.12500  0.00411  0.88588
E21   E   0.12500  0.13588  0.74589
E22   E   0.12500  0.36025  0.27974
E23   E   0.12500  0.47026  0.11025
E24   E   0.12500  0.52974  0.38975
E25   E   0.12500  0.63975  0.22026
E26   E   0.12500  0.86412  0.75411
E27   E   0.12500  0.99589  0.61412
E28   E   0.12911  0.22437  0.23525
E29   E   0.12911  0.77563  0.26475
E30   E   0.13588  0.25411  0.37500
E31   E   0.13588  0.74589  0.12500
E32   E   0.13975  0.27974  0.87500
E33   E   0.13975  0.72026  0.62500
E34   E   0.13999  0.00000  0.25000
E35   E   0.22026  0.12500  0.63975
E36   E   0.22026  0.87500  0.86025
E37   E   0.22437  0.23525  0.12911
E38   E   0.22437  0.76475  0.37089
E39   E   0.23525  0.12911  0.22437
E40   E   0.23525  0.87089  0.27563
E41   E   0.24589  0.37500  0.86412
E42   E   0.24589  0.62500  0.63588
E43   E   0.25000  0.13999  0.00000
E44   E   0.25000  0.38999  0.50000
E45   E   0.25000  0.61001  0.00000
E46   E   0.25000  0.86001  0.50000
E47   E   0.25411  0.37500  0.13588
E48   E   0.25411  0.62500  0.36412
E49   E   0.26475  0.12911  0.77563
E50   E   0.26475  0.87089  0.72437
E51   E   0.27563  0.23525  0.87089
E52   E   0.27563  0.76475  0.62911
E53   E   0.27974  0.12500  0.36025
E54   E   0.27974  0.87500  0.13975
E55   E   0.36001  0.00000  0.75000
E56   E   0.36025  0.27974  0.12500
E57   E   0.36025  0.72026  0.37500
E58   E   0.36412  0.25411  0.62500
E59   E   0.36412  0.74589  0.87500
E60   E   0.37089  0.22437  0.76475
E61   E   0.37089  0.77563  0.73525
E62   E   0.37500  0.00411  0.11412
E63   E   0.37500  0.13588  0.25411
E64   E   0.37500  0.36025  0.72026
E65   E   0.37500  0.47026  0.88975
E66   E   0.37500  0.52974  0.61025
E67   E   0.37500  0.63975  0.77974
E68   E   0.37500  0.86412  0.24589
E69   E   0.37500  0.99589  0.38588
E70   E   0.37911  0.48525  0.47437
E71   E   0.37911  0.51475  0.02563
E72   E   0.38588  0.37500  0.99589
E73   E   0.38588  0.62500  0.50411
E74   E   0.38975  0.12500  0.52974
E75   E   0.38975  0.87500  0.97026
E76   E   0.38999  0.50000  0.25000
E77   E   0.47026  0.11025  0.12500
E78   E   0.47026  0.88975  0.37500
E79   E   0.47437  0.37911  0.48525
E80   E   0.47437  0.62089  0.01475
E81   E   0.48525  0.47437  0.37911
E82   E   0.48525  0.52563  0.12089
E83   E   0.49589  0.11412  0.62500
E84   E   0.49589  0.88588  0.87500
E85   E   0.50000  0.25000  0.38999
E86   E   0.50000  0.25000  0.86001
E87   E   0.50000  0.75000  0.11001
E88   E   0.50000  0.75000  0.63999
E89   E   0.50411  0.38588  0.62500
E90   E   0.50411  0.61412  0.87500
E91   E   0.51475  0.02563  0.37911
E92   E   0.51475  0.97437  0.12089
E93   E   0.52563  0.12089  0.48525
E94   E   0.52563  0.87911  0.01475
E95   E   0.52974  0.38975  0.12500
E96   E   0.52974  0.61025  0.37500
E97   E   0.61001  0.00000  0.25000
E98   E   0.61025  0.37500  0.52974
E99   E   0.61025  0.62500  0.97026
E100  E   0.61412  0.12500  0.99589
E101  E   0.61412  0.87500  0.50411
E102  E   0.62089  0.01475  0.47437
E103  E   0.62089  0.98525  0.02563
E104  E   0.62500  0.02974  0.88975
E105  E   0.62500  0.13975  0.72026
E106  E   0.62500  0.36412  0.25411
E107  E   0.62500  0.49589  0.11412
E108  E   0.62500  0.50411  0.38588
E109  E   0.62500  0.63588  0.24589
E110  E   0.62500  0.86025  0.77974
E111  E   0.62500  0.97026  0.61025
E112  E   0.62911  0.27563  0.76475
E113  E   0.62911  0.72437  0.73525
E114  E   0.63588  0.24589  0.62500
E115  E   0.63588  0.75411  0.87500
E116  E   0.63975  0.22026  0.12500
E117  E   0.63975  0.77974  0.37500
E118  E   0.63999  0.50000  0.75000
E119  E   0.72026  0.37500  0.36025
E120  E   0.72026  0.62500  0.13975
E121  E   0.72437  0.26475  0.87089
E122  E   0.72437  0.73525  0.62911
E123  E   0.73525  0.37089  0.77563
E124  E   0.73525  0.62911  0.72437
E125  E   0.74589  0.12500  0.13588
E126  E   0.74589  0.87500  0.36412
E127  E   0.75000  0.11001  0.50000
E128  E   0.75000  0.36001  0.00000
E129  E   0.75000  0.63999  0.50000
E130  E   0.75000  0.88999  0.00000
E131  E   0.75411  0.12500  0.86412
E132  E   0.75411  0.87500  0.63588
E133  E   0.76475  0.37089  0.22437
E134  E   0.76475  0.62911  0.27563
E135  E   0.77563  0.26475  0.12911
E136  E   0.77563  0.73525  0.37089
E137  E   0.77974  0.37500  0.63975
E138  E   0.77974  0.62500  0.86025
E139  E   0.86001  0.50000  0.25000
E140  E   0.86025  0.22026  0.87500
E141  E   0.86025  0.77974  0.62500
E142  E   0.86412  0.24589  0.37500
E143  E   0.86412  0.75411  0.12500
E144  E   0.87089  0.27563  0.23525
E145  E   0.87089  0.72437  0.26475
E146  E   0.87500  0.02974  0.11025
E147  E   0.87500  0.13975  0.27974
E148  E   0.87500  0.36412  0.74589
E149  E   0.87500  0.49589  0.88588
E150  E   0.87500  0.50411  0.61412
E151  E   0.87500  0.63588  0.75411
E152  E   0.87500  0.86025  0.22026
E153  E   0.87500  0.97026  0.38975
E154  E   0.87911  0.01475  0.52563
E155  E   0.87911  0.98525  0.97437
E156  E   0.88588  0.12500  0.00411
E157  E   0.88588  0.87500  0.49589
E158  E   0.88975  0.37500  0.47026
E159  E   0.88975  0.62500  0.02974
E160  E   0.88999  0.00000  0.75000
E161  E   0.97026  0.38975  0.87500
E162  E   0.97026  0.61025  0.62500
E163  E   0.97437  0.12089  0.51475
E164  E   0.97437  0.87911  0.98525
E165  E   0.98525  0.02563  0.62089
E166  E   0.98525  0.97437  0.87911
E167  E   0.99589  0.38588  0.37500
E168  E   0.99589  0.61412  0.12500
loop_
