data_svz_Pn-3n:2  hall_number: 519, V_con: 7
_audit_creation_date              2025-03-06
_audit_creation_method            'MOFbuilder_1.0'
_symmetry_space_group_name_H-M    'P1'
_symmetry_Int_Tables_number       1
_symmetry_cell_setting            triclinic
loop_
_symmetry_equiv_pos_as_xyz
  x,y,z
_cell_length_a                    36.907199999999996
_cell_length_b                    36.907199999999996
_cell_length_c                    36.907199999999996
_cell_angle_alpha                 90.0
_cell_angle_beta                  90.0
_cell_angle_gamma                 90.0
loop_
_atom_site_label
_atom_site_type_symbol
_atom_site_fract_x
_atom_site_fract_y
_atom_site_fract_z
V1    V   0.06961  0.18545  0.90116
V2    V   0.06961  0.31455  0.59884
V3    V   0.06961  0.59884  0.18545
V4    V   0.06961  0.90116  0.31455
V5    V   0.09884  0.56961  0.68545
V6    V   0.09884  0.68545  0.93039
V7    V   0.09884  0.81455  0.56961
V8    V   0.09884  0.93039  0.81455
V9    V   0.18545  0.06961  0.59884
V10   V   0.18545  0.43039  0.90116
V11   V   0.18545  0.59884  0.43039
V12   V   0.18545  0.90116  0.06961
V13   V   0.31455  0.06961  0.90116
V14   V   0.31455  0.43039  0.59884
V15   V   0.31455  0.59884  0.06961
V16   V   0.31455  0.90116  0.43039
V17   V   0.40116  0.56961  0.81455
V18   V   0.40116  0.68545  0.56961
V19   V   0.40116  0.81455  0.93039
V20   V   0.40116  0.93039  0.68545
V21   V   0.43039  0.18545  0.59884
V22   V   0.43039  0.31455  0.90116
V23   V   0.43039  0.59884  0.31455
V24   V   0.43039  0.90116  0.18545
V25   V   0.56961  0.09884  0.81455
V26   V   0.56961  0.40116  0.68545
V27   V   0.56961  0.68545  0.09884
V28   V   0.56961  0.81455  0.40116
V29   V   0.59884  0.06961  0.31455
V30   V   0.59884  0.18545  0.06961
V31   V   0.59884  0.31455  0.43039
V32   V   0.59884  0.43039  0.18545
V33   V   0.68545  0.09884  0.56961
V34   V   0.68545  0.40116  0.93039
V35   V   0.68545  0.56961  0.40116
V36   V   0.68545  0.93039  0.09884
V37   V   0.81455  0.09884  0.93039
V38   V   0.81455  0.40116  0.56961
V39   V   0.81455  0.56961  0.09884
V40   V   0.81455  0.93039  0.40116
V41   V   0.90116  0.06961  0.18545
V42   V   0.90116  0.18545  0.43039
V43   V   0.90116  0.31455  0.06961
V44   V   0.90116  0.43039  0.31455
V45   V   0.93039  0.09884  0.68545
V46   V   0.93039  0.40116  0.81455
V47   V   0.93039  0.68545  0.40116
V48   V   0.93039  0.81455  0.09884
E1    E   0.00000  0.14215  0.79331
E2    E   0.00000  0.20669  0.64215
E3    E   0.00000  0.29331  0.85785
E4    E   0.00000  0.35785  0.70669
E5    E   0.00000  0.64215  0.29331
E6    E   0.00000  0.70669  0.14215
E7    E   0.00000  0.79331  0.35785
E8    E   0.00000  0.85785  0.20669
E9    E   0.01461  0.01461  0.75000
E10   E   0.01461  0.48539  0.75000
E11   E   0.01461  0.75000  0.01461
E12   E   0.01461  0.75000  0.48539
E13   E   0.01461  0.01461  0.75000
E14   E   0.01461  0.48539  0.75000
E15   E   0.01461  0.75000  0.01461
E16   E   0.01461  0.75000  0.48539
E17   E   0.05792  0.08422  0.64215
E18   E   0.05792  0.41578  0.85785
E19   E   0.05792  0.64215  0.41578
E20   E   0.05792  0.85785  0.08422
E21   E   0.08422  0.05792  0.85785
E22   E   0.08422  0.44208  0.64215
E23   E   0.08422  0.64215  0.05792
E24   E   0.08422  0.85785  0.44208
E25   E   0.09884  0.62753  0.80792
E26   E   0.09884  0.69208  0.62753
E27   E   0.09884  0.80792  0.87247
E28   E   0.09884  0.87247  0.69208
E29   E   0.12753  0.19208  0.59884
E30   E   0.12753  0.30792  0.90116
E31   E   0.12753  0.59884  0.30792
E32   E   0.12753  0.90116  0.19208
E33   E   0.14215  0.00000  0.70669
E34   E   0.14215  0.50000  0.79331
E35   E   0.14215  0.55792  0.91578
E36   E   0.14215  0.58422  0.55792
E37   E   0.14215  0.70669  0.50000
E38   E   0.14215  0.79331  0.00000
E39   E   0.14215  0.91578  0.94208
E40   E   0.14215  0.94208  0.58422
E41   E   0.19208  0.12753  0.90116
E42   E   0.19208  0.37247  0.59884
E43   E   0.19208  0.59884  0.12753
E44   E   0.19208  0.90116  0.37247
E45   E   0.20669  0.00000  0.85785
E46   E   0.20669  0.50000  0.64215
E47   E   0.20669  0.64215  0.00000
E48   E   0.20669  0.85785  0.50000
E49   E   0.25000  0.51461  0.51461
E50   E   0.25000  0.51461  0.98539
E51   E   0.25000  0.98539  0.51461
E52   E   0.25000  0.98539  0.98539
E53   E   0.29331  0.00000  0.64215
E54   E   0.29331  0.50000  0.85785
E55   E   0.29331  0.64215  0.50000
E56   E   0.29331  0.85785  0.00000
E57   E   0.30792  0.12753  0.59884
E58   E   0.30792  0.37247  0.90116
E59   E   0.30792  0.59884  0.37247
E60   E   0.30792  0.90116  0.12753
E61   E   0.35785  0.00000  0.79331
E62   E   0.35785  0.50000  0.70669
E63   E   0.35785  0.55792  0.58422
E64   E   0.35785  0.58422  0.94208
E65   E   0.35785  0.70669  0.00000
E66   E   0.35785  0.79331  0.50000
E67   E   0.35785  0.91578  0.55792
E68   E   0.35785  0.94208  0.91578
E69   E   0.37247  0.19208  0.90116
E70   E   0.37247  0.30792  0.59884
E71   E   0.37247  0.59884  0.19208
E72   E   0.37247  0.90116  0.30792
E73   E   0.40116  0.62753  0.69208
E74   E   0.40116  0.69208  0.87247
E75   E   0.40116  0.80792  0.62753
E76   E   0.40116  0.87247  0.80792
E77   E   0.41578  0.05792  0.64215
E78   E   0.41578  0.44208  0.85785
E79   E   0.41578  0.64215  0.44208
E80   E   0.41578  0.85785  0.05792
E81   E   0.44208  0.08422  0.85785
E82   E   0.44208  0.41578  0.64215
E83   E   0.44208  0.64215  0.08422
E84   E   0.44208  0.85785  0.41578
E85   E   0.48539  0.01461  0.75000
E86   E   0.48539  0.01461  0.75000
E87   E   0.48539  0.48539  0.75000
E88   E   0.48539  0.75000  0.01461
E89   E   0.48539  0.75000  0.01461
E90   E   0.48539  0.75000  0.48539
E91   E   0.50000  0.14215  0.70669
E92   E   0.50000  0.20669  0.85785
E93   E   0.50000  0.29331  0.64215
E94   E   0.50000  0.35785  0.79331
E95   E   0.50000  0.64215  0.20669
E96   E   0.50000  0.70669  0.35785
E97   E   0.50000  0.79331  0.14215
E98   E   0.50000  0.85785  0.29331
E99   E   0.51461  0.25000  0.51461
E100  E   0.51461  0.25000  0.98539
E101  E   0.51461  0.51461  0.25000
E102  E   0.51461  0.98539  0.25000
E103  E   0.55792  0.14215  0.58422
E104  E   0.55792  0.35785  0.91578
E105  E   0.55792  0.58422  0.35785
E106  E   0.55792  0.91578  0.14215
E107  E   0.58422  0.14215  0.94208
E108  E   0.58422  0.35785  0.55792
E109  E   0.58422  0.55792  0.14215
E110  E   0.58422  0.94208  0.35785
E111  E   0.59884  0.12753  0.19208
E112  E   0.59884  0.19208  0.37247
E113  E   0.59884  0.30792  0.12753
E114  E   0.59884  0.37247  0.30792
E115  E   0.62753  0.09884  0.69208
E116  E   0.62753  0.40116  0.80792
E117  E   0.62753  0.69208  0.40116
E118  E   0.62753  0.80792  0.09884
E119  E   0.64215  0.00000  0.20669
E120  E   0.64215  0.05792  0.08422
E121  E   0.64215  0.08422  0.44208
E122  E   0.64215  0.20669  0.50000
E123  E   0.64215  0.29331  0.00000
E124  E   0.64215  0.41578  0.05792
E125  E   0.64215  0.44208  0.41578
E126  E   0.64215  0.50000  0.29331
E127  E   0.69208  0.09884  0.87247
E128  E   0.69208  0.40116  0.62753
E129  E   0.69208  0.62753  0.09884
E130  E   0.69208  0.87247  0.40116
E131  E   0.70669  0.00000  0.35785
E132  E   0.70669  0.14215  0.00000
E133  E   0.70669  0.35785  0.50000
E134  E   0.70669  0.50000  0.14215
E135  E   0.75000  0.01461  0.01461
E136  E   0.75000  0.01461  0.48539
E137  E   0.75000  0.01461  0.01461
E138  E   0.75000  0.01461  0.48539
E139  E   0.75000  0.48539  0.01461
E140  E   0.75000  0.48539  0.01461
E141  E   0.75000  0.48539  0.48539
E142  E   0.79331  0.00000  0.14215
E143  E   0.79331  0.14215  0.50000
E144  E   0.79331  0.35785  0.00000
E145  E   0.79331  0.50000  0.35785
E146  E   0.80792  0.09884  0.62753
E147  E   0.80792  0.40116  0.87247
E148  E   0.80792  0.62753  0.40116
E149  E   0.80792  0.87247  0.09884
E150  E   0.85785  0.00000  0.29331
E151  E   0.85785  0.05792  0.41578
E152  E   0.85785  0.08422  0.05792
E153  E   0.85785  0.20669  0.00000
E154  E   0.85785  0.29331  0.50000
E155  E   0.85785  0.41578  0.44208
E156  E   0.85785  0.44208  0.08422
E157  E   0.85785  0.50000  0.20669
E158  E   0.87247  0.09884  0.80792
E159  E   0.87247  0.40116  0.69208
E160  E   0.87247  0.69208  0.09884
E161  E   0.87247  0.80792  0.40116
E162  E   0.90116  0.12753  0.30792
E163  E   0.90116  0.19208  0.12753
E164  E   0.90116  0.30792  0.37247
E165  E   0.90116  0.37247  0.19208
E166  E   0.91578  0.14215  0.55792
E167  E   0.91578  0.35785  0.94208
E168  E   0.91578  0.55792  0.35785
E169  E   0.91578  0.94208  0.14215
E170  E   0.94208  0.14215  0.91578
E171  E   0.94208  0.35785  0.58422
E172  E   0.94208  0.58422  0.14215
E173  E   0.94208  0.91578  0.35785
E174  E   0.98539  0.25000  0.51461
E175  E   0.98539  0.25000  0.98539
E176  E   0.98539  0.51461  0.25000
E177  E   0.98539  0.98539  0.25000
loop_
