data_swe_P62  hall_number: 465, V_con: 7
_audit_creation_date              2025-03-06
_audit_creation_method            'MOFbuilder_1.0'
_symmetry_space_group_name_H-M    'P1'
_symmetry_Int_Tables_number       1
_symmetry_cell_setting            triclinic
loop_
_symmetry_equiv_pos_as_xyz
  x,y,z
_cell_length_a                    25.1484
_cell_length_b                    25.1484
_cell_length_c                    10.0
_cell_angle_alpha                 90.0
_cell_angle_beta                  90.0
_cell_angle_gamma                 120.0
loop_
_atom_site_label
_atom_site_type_symbol
_atom_site_fract_x
_atom_site_fract_y
_atom_site_fract_z
V1    V   0.15203  0.72500  0.00000
V2    V   0.27500  0.42703  0.66667
V3    V   0.42703  0.15203  0.33333
V4    V   0.57297  0.84797  0.33333
V5    V   0.72500  0.57297  0.66667
V6    V   0.84797  0.27500  0.00000
E1    E   0.00000  0.50000  0.00000
E2    E   0.06149  0.35102  0.83334
E3    E   0.15203  0.72500  0.50000
E4    E   0.21352  0.57601  0.83333
E5    E   0.27500  0.42703  0.16667
E6    E   0.28953  0.93851  0.16667
E7    E   0.35102  0.28953  0.50000
E8    E   0.36249  0.78648  0.16666
E9    E   0.42399  0.63751  0.50000
E10   E   0.42703  0.15203  0.83333
E11   E   0.50000  0.00000  0.33333
E12   E   0.50000  0.50000  0.66667
E13   E   0.57297  0.84797  0.83333
E14   E   0.57601  0.36249  0.50000
E15   E   0.63751  0.21352  0.16666
E16   E   0.64898  0.71047  0.50000
E17   E   0.71047  0.06149  0.16667
E18   E   0.72500  0.57297  0.16667
E19   E   0.78648  0.42399  0.83333
E20   E   0.84797  0.27500  0.50000
E21   E   0.93851  0.64898  0.83334
loop_
