data_swh_P6/mcc  hall_number: 486, V_con: 7
_audit_creation_date              2025-03-06
_audit_creation_method            'MOFbuilder_1.0'
_symmetry_space_group_name_H-M    'P1'
_symmetry_Int_Tables_number       1
_symmetry_cell_setting            triclinic
loop_
_symmetry_equiv_pos_as_xyz
  x,y,z
_cell_length_a                    27.8745
_cell_length_b                    27.8745
_cell_length_c                    17.112000000000002
_cell_angle_alpha                 90.0
_cell_angle_beta                  90.0
_cell_angle_gamma                 120.0
loop_
_atom_site_label
_atom_site_type_symbol
_atom_site_fract_x
_atom_site_fract_y
_atom_site_fract_z
V1    V   0.10721  0.40013  0.50000
V2    V   0.10721  0.70708  0.00000
V3    V   0.29292  0.40013  0.00000
V4    V   0.29292  0.89279  0.50000
V5    V   0.40013  0.10721  0.00000
V6    V   0.40013  0.29292  0.50000
V7    V   0.59987  0.70708  0.50000
V8    V   0.59987  0.89279  0.00000
V9    V   0.70708  0.10721  0.50000
V10   V   0.70708  0.59987  0.00000
V11   V   0.89279  0.29292  0.00000
V12   V   0.89279  0.59987  0.50000
E1    E   0.00000  0.34653  0.25000
E2    E   0.00000  0.34653  0.75000
E3    E   0.00000  0.50000  0.00000
E4    E   0.00000  0.50000  0.50000
E5    E   0.00000  0.65347  0.25000
E6    E   0.00000  0.65347  0.75000
E7    E   0.09285  0.34652  0.00000
E8    E   0.09285  0.74633  0.50000
E9    E   0.20006  0.40013  0.25000
E10   E   0.20006  0.40013  0.75000
E11   E   0.20006  0.79993  0.25000
E12   E   0.20006  0.79993  0.75000
E13   E   0.20007  0.40013  0.25000
E14   E   0.20007  0.40013  0.75000
E15   E   0.20007  0.79994  0.25000
E16   E   0.20007  0.79994  0.75000
E17   E   0.25367  0.34652  0.50000
E18   E   0.25367  0.90715  0.00000
E19   E   0.34652  0.09285  0.50000
E20   E   0.34652  0.25367  0.00000
E21   E   0.34653  0.00000  0.25000
E22   E   0.34653  0.00000  0.75000
E23   E   0.34653  0.34653  0.25000
E24   E   0.34653  0.34653  0.75000
E25   E   0.40013  0.20006  0.25000
E26   E   0.40013  0.20006  0.75000
E27   E   0.40013  0.20007  0.25000
E28   E   0.40013  0.20007  0.75000
E29   E   0.50000  0.00000  0.00000
E30   E   0.50000  0.00000  0.50000
E31   E   0.50000  0.50000  0.00000
E32   E   0.50000  0.50000  0.50000
E33   E   0.59987  0.79993  0.25000
E34   E   0.59987  0.79993  0.75000
E35   E   0.59987  0.79994  0.25000
E36   E   0.59987  0.79994  0.75000
E37   E   0.65347  0.00000  0.25000
E38   E   0.65347  0.00000  0.75000
E39   E   0.65347  0.65347  0.25000
E40   E   0.65347  0.65347  0.75000
E41   E   0.65348  0.74633  0.00000
E42   E   0.65348  0.90715  0.50000
E43   E   0.74633  0.09285  0.00000
E44   E   0.74633  0.65348  0.50000
E45   E   0.79993  0.20006  0.25000
E46   E   0.79993  0.20006  0.75000
E47   E   0.79993  0.59987  0.25000
E48   E   0.79993  0.59987  0.75000
E49   E   0.79994  0.20007  0.25000
E50   E   0.79994  0.20007  0.75000
E51   E   0.79994  0.59987  0.25000
E52   E   0.79994  0.59987  0.75000
E53   E   0.90715  0.25367  0.50000
E54   E   0.90715  0.65348  0.00000
loop_
