data_swi_P6/mcc  hall_number: 486, V_con: 7
_audit_creation_date              2025-03-06
_audit_creation_method            'MOFbuilder_1.0'
_symmetry_space_group_name_H-M    'P1'
_symmetry_Int_Tables_number       1
_symmetry_cell_setting            triclinic
loop_
_symmetry_equiv_pos_as_xyz
  x,y,z
_cell_length_a                    26.4575
_cell_length_b                    26.4575
_cell_length_c                    18.5166
_cell_angle_alpha                 90.0
_cell_angle_beta                  90.0
_cell_angle_gamma                 120.0
loop_
_atom_site_label
_atom_site_type_symbol
_atom_site_fract_x
_atom_site_fract_y
_atom_site_fract_z
V1    V   0.14286  0.42857  0.50000
V2    V   0.14286  0.71429  0.00000
V3    V   0.28571  0.42857  0.00000
V4    V   0.28571  0.85714  0.50000
V5    V   0.42857  0.14286  0.00000
V6    V   0.42857  0.28571  0.50000
V7    V   0.57143  0.71429  0.50000
V8    V   0.57143  0.85714  0.00000
V9    V   0.71429  0.14286  0.50000
V10   V   0.71429  0.57143  0.00000
V11   V   0.85714  0.28571  0.00000
V12   V   0.85714  0.57143  0.50000
E1    E   0.00000  0.50000  0.00000
E2    E   0.00000  0.50000  0.50000
E3    E   0.07143  0.35715  0.00000
E4    E   0.07143  0.71428  0.50000
E5    E   0.21428  0.42857  0.25000
E6    E   0.21428  0.42857  0.75000
E7    E   0.21428  0.78571  0.25000
E8    E   0.21428  0.78571  0.75000
E9    E   0.21429  0.42857  0.25000
E10   E   0.21429  0.42857  0.75000
E11   E   0.21429  0.57143  0.00000
E12   E   0.21429  0.64286  0.50000
E13   E   0.21429  0.78572  0.25000
E14   E   0.21429  0.78572  0.75000
E15   E   0.28572  0.35715  0.50000
E16   E   0.28572  0.92857  0.00000
E17   E   0.35714  0.57143  0.50000
E18   E   0.35714  0.78571  0.00000
E19   E   0.35715  0.07143  0.50000
E20   E   0.35715  0.28572  0.00000
E21   E   0.42857  0.21428  0.25000
E22   E   0.42857  0.21428  0.75000
E23   E   0.42857  0.21429  0.25000
E24   E   0.42857  0.21429  0.75000
E25   E   0.42857  0.64286  0.00000
E26   E   0.42857  0.78571  0.50000
E27   E   0.50000  0.00000  0.00000
E28   E   0.50000  0.00000  0.50000
E29   E   0.50000  0.50000  0.00000
E30   E   0.50000  0.50000  0.50000
E31   E   0.57143  0.21429  0.50000
E32   E   0.57143  0.35714  0.00000
E33   E   0.57143  0.78571  0.25000
E34   E   0.57143  0.78571  0.75000
E35   E   0.57143  0.78572  0.25000
E36   E   0.57143  0.78572  0.75000
E37   E   0.64285  0.71428  0.00000
E38   E   0.64285  0.92857  0.50000
E39   E   0.64286  0.21429  0.00000
E40   E   0.64286  0.42857  0.50000
E41   E   0.71428  0.07143  0.00000
E42   E   0.71428  0.64285  0.50000
E43   E   0.78571  0.21428  0.25000
E44   E   0.78571  0.21428  0.75000
E45   E   0.78571  0.35714  0.50000
E46   E   0.78571  0.42857  0.00000
E47   E   0.78571  0.57143  0.25000
E48   E   0.78571  0.57143  0.75000
E49   E   0.78572  0.21429  0.25000
E50   E   0.78572  0.21429  0.75000
E51   E   0.78572  0.57143  0.25000
E52   E   0.78572  0.57143  0.75000
E53   E   0.92857  0.28572  0.50000
E54   E   0.92857  0.64285  0.00000
loop_
