data_swk_P63/mcm  hall_number: 487, V_con: 7
_audit_creation_date              2025-03-06
_audit_creation_method            'MOFbuilder_1.0'
_symmetry_space_group_name_H-M    'P1'
_symmetry_Int_Tables_number       1
_symmetry_cell_setting            triclinic
loop_
_symmetry_equiv_pos_as_xyz
  x,y,z
_cell_length_a                    34.641099999999994
_cell_length_b                    34.641099999999994
_cell_length_c                    16.3299
_cell_angle_alpha                 90.0
_cell_angle_beta                  90.0
_cell_angle_gamma                 120.0
loop_
_atom_site_label
_atom_site_type_symbol
_atom_site_fract_x
_atom_site_fract_y
_atom_site_fract_z
V1    V   0.16667  0.50000  0.25000
V2    V   0.16667  0.66667  0.75000
V3    V   0.33333  0.50000  0.75000
V4    V   0.33333  0.83333  0.25000
V5    V   0.50000  0.16667  0.25000
V6    V   0.50000  0.33333  0.75000
V7    V   0.50000  0.66667  0.25000
V8    V   0.50000  0.83333  0.75000
V9    V   0.66667  0.16667  0.75000
V10   V   0.66667  0.50000  0.25000
V11   V   0.83333  0.33333  0.25000
V12   V   0.83333  0.50000  0.75000
E1    E   0.00000  0.41667  0.25000
E2    E   0.00000  0.58333  0.75000
E3    E   0.16667  0.58333  0.00000
E4    E   0.16667  0.58333  0.50000
E5    E   0.16667  0.58334  0.00000
E6    E   0.16667  0.58334  0.50000
E7    E   0.25000  0.50000  0.00000
E8    E   0.25000  0.50000  0.50000
E9    E   0.25000  0.58333  0.75000
E10   E   0.25000  0.66667  0.25000
E11   E   0.25000  0.75000  0.00000
E12   E   0.25000  0.75000  0.50000
E13   E   0.33333  0.58333  0.25000
E14   E   0.33333  0.75000  0.75000
E15   E   0.41666  0.58333  0.00000
E16   E   0.41666  0.58333  0.50000
E17   E   0.41666  0.83333  0.00000
E18   E   0.41666  0.83333  0.50000
E19   E   0.41667  0.00000  0.25000
E20   E   0.41667  0.41667  0.75000
E21   E   0.41667  0.58334  0.00000
E22   E   0.41667  0.58334  0.50000
E23   E   0.41667  0.66667  0.75000
E24   E   0.41667  0.75000  0.25000
E25   E   0.41667  0.83333  0.00000
E26   E   0.41667  0.83333  0.50000
E27   E   0.50000  0.25000  0.00000
E28   E   0.50000  0.25000  0.50000
E29   E   0.50000  0.75000  0.00000
E30   E   0.50000  0.75000  0.50000
E31   E   0.58333  0.00000  0.75000
E32   E   0.58333  0.16667  0.00000
E33   E   0.58333  0.16667  0.50000
E34   E   0.58333  0.25000  0.75000
E35   E   0.58333  0.33333  0.25000
E36   E   0.58333  0.41666  0.00000
E37   E   0.58333  0.41666  0.50000
E38   E   0.58333  0.58333  0.25000
E39   E   0.58334  0.16667  0.00000
E40   E   0.58334  0.16667  0.50000
E41   E   0.58334  0.41667  0.00000
E42   E   0.58334  0.41667  0.50000
E43   E   0.66667  0.25000  0.25000
E44   E   0.66667  0.41667  0.75000
E45   E   0.75000  0.25000  0.00000
E46   E   0.75000  0.25000  0.50000
E47   E   0.75000  0.33333  0.75000
E48   E   0.75000  0.41667  0.25000
E49   E   0.75000  0.50000  0.00000
E50   E   0.75000  0.50000  0.50000
E51   E   0.83333  0.41666  0.00000
E52   E   0.83333  0.41666  0.50000
E53   E   0.83333  0.41667  0.00000
E54   E   0.83333  0.41667  0.50000
loop_
