data_sxc-d_P6422  hall_number: 475, V_con: 3, EC_con: 3
_audit_creation_date              2025-03-06
_audit_creation_method            'MOFbuilder_1.0'
_symmetry_space_group_name_H-M    'P1'
_symmetry_Int_Tables_number       1
_symmetry_cell_setting            triclinic
loop_
_symmetry_equiv_pos_as_xyz
  x,y,z
_cell_length_a                    25.123700000000003
_cell_length_b                    25.123700000000003
_cell_length_c                    60.5873
_cell_angle_alpha                 90.0
_cell_angle_beta                  90.0
_cell_angle_gamma                 120.0
loop_
_atom_site_label
_atom_site_type_symbol
_atom_site_fract_x
_atom_site_fract_y
_atom_site_fract_z
V1    V   0.00000  0.50000  0.75080
V2    V   0.00000  0.50000  0.91586
V3    V   0.50000  0.00000  0.41747
V4    V   0.50000  0.00000  0.58253
V5    V   0.50000  0.50000  0.08414
V6    V   0.50000  0.50000  0.24920
EC1    EC   0.22980  0.61490  0.33333
EC2    EC   0.38510  0.61490  0.66667
EC3    EC   0.38510  0.77020  0.00000
EC4    EC   0.61490  0.22980  0.00000
EC5    EC   0.61490  0.38510  0.66667
EC6    EC   0.77020  0.38510  0.33333
E1    E   0.00000  0.50000  0.33333
E2    E   0.00000  0.50000  0.83333
E3    E   0.19255  0.55745  0.70873
E4    E   0.19255  0.63510  0.95793
E5    E   0.36490  0.55745  0.29127
E6    E   0.36490  0.80745  0.37540
E7    E   0.44255  0.63510  0.04207
E8    E   0.44255  0.80745  0.62460
E9    E   0.50000  0.00000  0.00000
E10   E   0.50000  0.00000  0.50000
E11   E   0.50000  0.50000  0.16667
E12   E   0.50000  0.50000  0.16667
E13   E   0.50000  0.50000  0.66667
E14   E   0.55745  0.19255  0.62460
E15   E   0.55745  0.36490  0.04207
E16   E   0.63510  0.19255  0.37540
E17   E   0.63510  0.44255  0.29127
E18   E   0.80745  0.36490  0.95793
E19   E   0.80745  0.44255  0.70873
loop_
