data_tce_I4/m  hall_number: 363, V_con: 10
_audit_creation_date              2025-03-06
_audit_creation_method            'MOFbuilder_1.0'
_symmetry_space_group_name_H-M    'P1'
_symmetry_Int_Tables_number       1
_symmetry_cell_setting            triclinic
loop_
_symmetry_equiv_pos_as_xyz
  x,y,z
_cell_length_a                    25.156299999999998
_cell_length_b                    25.156299999999998
_cell_length_c                    10.0
_cell_angle_alpha                 90.0
_cell_angle_beta                  90.0
_cell_angle_gamma                 90.0
loop_
_atom_site_label
_atom_site_type_symbol
_atom_site_fract_x
_atom_site_fract_y
_atom_site_fract_z
V1    V   0.07901  0.73025  0.50000
V2    V   0.23025  0.42099  0.00000
V3    V   0.26975  0.07901  0.50000
V4    V   0.42099  0.76975  0.00000
V5    V   0.57901  0.23025  0.00000
V6    V   0.73025  0.92099  0.50000
V7    V   0.76975  0.57901  0.00000
V8    V   0.92099  0.26975  0.50000
E1    E   0.07562  0.34537  0.25000
E2    E   0.07562  0.34537  0.75000
E3    E   0.07901  0.73025  0.00000
E4    E   0.09537  0.17438  0.50000
E5    E   0.15463  0.57562  0.25000
E6    E   0.15463  0.57562  0.75000
E7    E   0.17438  0.90463  0.50000
E8    E   0.23025  0.42099  0.50000
E9    E   0.25000  0.25000  0.25000
E10   E   0.25000  0.25000  0.75000
E11   E   0.25000  0.75000  0.25000
E12   E   0.25000  0.75000  0.75000
E13   E   0.26975  0.07901  0.00000
E14   E   0.32562  0.59537  0.00000
E15   E   0.34537  0.92438  0.25000
E16   E   0.34537  0.92438  0.75000
E17   E   0.40463  0.32562  0.00000
E18   E   0.42099  0.76975  0.50000
E19   E   0.42438  0.15463  0.25000
E20   E   0.42438  0.15463  0.75000
E21   E   0.57562  0.84537  0.25000
E22   E   0.57562  0.84537  0.75000
E23   E   0.57901  0.23025  0.50000
E24   E   0.59537  0.67438  0.00000
E25   E   0.65463  0.07562  0.25000
E26   E   0.65463  0.07562  0.75000
E27   E   0.67438  0.40463  0.00000
E28   E   0.73025  0.92099  0.00000
E29   E   0.75000  0.25000  0.25000
E30   E   0.75000  0.25000  0.75000
E31   E   0.75000  0.75000  0.25000
E32   E   0.75000  0.75000  0.75000
E33   E   0.76975  0.57901  0.50000
E34   E   0.82562  0.09537  0.50000
E35   E   0.84537  0.42438  0.25000
E36   E   0.84537  0.42438  0.75000
E37   E   0.90463  0.82562  0.50000
E38   E   0.92099  0.26975  0.00000
E39   E   0.92438  0.65463  0.25000
E40   E   0.92438  0.65463  0.75000
loop_
