data_tcf-x_Fddd:2  hall_number: 336, V_con: 14
_audit_creation_date              2025-03-06
_audit_creation_method            'MOFbuilder_1.0'
_symmetry_space_group_name_H-M    'P1'
_symmetry_Int_Tables_number       1
_symmetry_cell_setting            triclinic
loop_
_symmetry_equiv_pos_as_xyz
  x,y,z
_cell_length_a                    10.097199999999999
_cell_length_b                    16.4883
_cell_length_c                    60.0836
_cell_angle_alpha                 90.0
_cell_angle_beta                  90.0
_cell_angle_gamma                 90.0
loop_
_atom_site_label
_atom_site_type_symbol
_atom_site_fract_x
_atom_site_fract_y
_atom_site_fract_z
V1    V   0.12500  0.12500  0.31192
V2    V   0.12500  0.12500  0.93808
V3    V   0.12500  0.62500  0.43808
V4    V   0.12500  0.62500  0.81192
V5    V   0.37500  0.37500  0.06192
V6    V   0.37500  0.37500  0.68808
V7    V   0.37500  0.87500  0.18808
V8    V   0.37500  0.87500  0.56192
V9    V   0.62500  0.12500  0.43808
V10   V   0.62500  0.12500  0.81192
V11   V   0.62500  0.62500  0.31192
V12   V   0.62500  0.62500  0.93808
V13   V   0.87500  0.37500  0.18808
V14   V   0.87500  0.37500  0.56192
V15   V   0.87500  0.87500  0.06192
V16   V   0.87500  0.87500  0.68808
E1    E   0.00000  0.00000  0.00000
E2    E   0.00000  0.00000  0.50000
E3    E   0.00000  0.25000  0.25000
E4    E   0.00000  0.25000  0.75000
E5    E   0.00000  0.50000  0.00000
E6    E   0.00000  0.50000  0.50000
E7    E   0.00000  0.75000  0.25000
E8    E   0.00000  0.75000  0.75000
E9    E   0.12500  0.12500  0.06192
E10   E   0.12500  0.12500  0.18808
E11   E   0.12500  0.12500  0.43808
E12   E   0.12500  0.12500  0.56192
E13   E   0.12500  0.12500  0.68808
E14   E   0.12500  0.12500  0.81192
E15   E   0.12500  0.37500  0.12500
E16   E   0.12500  0.37500  0.37500
E17   E   0.12500  0.37500  0.62500
E18   E   0.12500  0.37500  0.87500
E19   E   0.12500  0.62500  0.06192
E20   E   0.12500  0.62500  0.18808
E21   E   0.12500  0.62500  0.31192
E22   E   0.12500  0.62500  0.56192
E23   E   0.12500  0.62500  0.68808
E24   E   0.12500  0.62500  0.93808
E25   E   0.12500  0.87500  0.12500
E26   E   0.12500  0.87500  0.37500
E27   E   0.12500  0.87500  0.62500
E28   E   0.12500  0.87500  0.87500
E29   E   0.25000  0.00000  0.25000
E30   E   0.25000  0.00000  0.75000
E31   E   0.25000  0.25000  0.00000
E32   E   0.25000  0.25000  0.50000
E33   E   0.25000  0.50000  0.25000
E34   E   0.25000  0.50000  0.75000
E35   E   0.25000  0.75000  0.00000
E36   E   0.25000  0.75000  0.50000
E37   E   0.37500  0.12500  0.12500
E38   E   0.37500  0.12500  0.37500
E39   E   0.37500  0.12500  0.62500
E40   E   0.37500  0.12500  0.87500
E41   E   0.37500  0.37500  0.18808
E42   E   0.37500  0.37500  0.31192
E43   E   0.37500  0.37500  0.43808
E44   E   0.37500  0.37500  0.56192
E45   E   0.37500  0.37500  0.81192
E46   E   0.37500  0.37500  0.93808
E47   E   0.37500  0.62500  0.12500
E48   E   0.37500  0.62500  0.37500
E49   E   0.37500  0.62500  0.62500
E50   E   0.37500  0.62500  0.87500
E51   E   0.37500  0.87500  0.06192
E52   E   0.37500  0.87500  0.31192
E53   E   0.37500  0.87500  0.43808
E54   E   0.37500  0.87500  0.68808
E55   E   0.37500  0.87500  0.81192
E56   E   0.37500  0.87500  0.93808
E57   E   0.50000  0.00000  0.00000
E58   E   0.50000  0.00000  0.50000
E59   E   0.50000  0.25000  0.25000
E60   E   0.50000  0.25000  0.75000
E61   E   0.50000  0.50000  0.00000
E62   E   0.50000  0.50000  0.50000
E63   E   0.50000  0.75000  0.25000
E64   E   0.50000  0.75000  0.75000
E65   E   0.62500  0.12500  0.06192
E66   E   0.62500  0.12500  0.18808
E67   E   0.62500  0.12500  0.31192
E68   E   0.62500  0.12500  0.56192
E69   E   0.62500  0.12500  0.68808
E70   E   0.62500  0.12500  0.93808
E71   E   0.62500  0.37500  0.12500
E72   E   0.62500  0.37500  0.37500
E73   E   0.62500  0.37500  0.62500
E74   E   0.62500  0.37500  0.87500
E75   E   0.62500  0.62500  0.06192
E76   E   0.62500  0.62500  0.18808
E77   E   0.62500  0.62500  0.43808
E78   E   0.62500  0.62500  0.56192
E79   E   0.62500  0.62500  0.68808
E80   E   0.62500  0.62500  0.81192
E81   E   0.62500  0.87500  0.12500
E82   E   0.62500  0.87500  0.37500
E83   E   0.62500  0.87500  0.62500
E84   E   0.62500  0.87500  0.87500
E85   E   0.75000  0.00000  0.25000
E86   E   0.75000  0.00000  0.75000
E87   E   0.75000  0.25000  0.00000
E88   E   0.75000  0.25000  0.50000
E89   E   0.75000  0.50000  0.25000
E90   E   0.75000  0.50000  0.75000
E91   E   0.75000  0.75000  0.00000
E92   E   0.75000  0.75000  0.50000
E93   E   0.87500  0.12500  0.12500
E94   E   0.87500  0.12500  0.37500
E95   E   0.87500  0.12500  0.62500
E96   E   0.87500  0.12500  0.87500
E97   E   0.87500  0.37500  0.06192
E98   E   0.87500  0.37500  0.31192
E99   E   0.87500  0.37500  0.43808
E100  E   0.87500  0.37500  0.68808
E101  E   0.87500  0.37500  0.81192
E102  E   0.87500  0.37500  0.93808
E103  E   0.87500  0.62500  0.12500
E104  E   0.87500  0.62500  0.37500
E105  E   0.87500  0.62500  0.62500
E106  E   0.87500  0.62500  0.87500
E107  E   0.87500  0.87500  0.18808
E108  E   0.87500  0.87500  0.31192
E109  E   0.87500  0.87500  0.43808
E110  E   0.87500  0.87500  0.56192
E111  E   0.87500  0.87500  0.81192
E112  E   0.87500  0.87500  0.93808
loop_
