data_tcg-x_Pnma  hall_number: 292, V_con: 14
_audit_creation_date              2025-03-06
_audit_creation_method            'MOFbuilder_1.0'
_symmetry_space_group_name_H-M    'P1'
_symmetry_Int_Tables_number       1
_symmetry_cell_setting            triclinic
loop_
_symmetry_equiv_pos_as_xyz
  x,y,z
_cell_length_a                    17.640800000000002
_cell_length_b                    15.5954
_cell_length_c                    9.1089
_cell_angle_alpha                 90.0
_cell_angle_beta                  90.0
_cell_angle_gamma                 90.0
loop_
_atom_site_label
_atom_site_type_symbol
_atom_site_fract_x
_atom_site_fract_y
_atom_site_fract_z
V1    V   0.11683  0.75000  0.62502
V2    V   0.38317  0.25000  0.12502
V3    V   0.61683  0.75000  0.87498
V4    V   0.88317  0.25000  0.37498
E1    E   0.00000  0.00000  0.00000
E2    E   0.00000  0.00000  0.50000
E3    E   0.00000  0.50000  0.00000
E4    E   0.00000  0.50000  0.50000
E5    E   0.11683  0.75000  0.12502
E6    E   0.13317  0.25000  0.25000
E7    E   0.13317  0.25000  0.75000
E8    E   0.25000  0.00000  0.37502
E9    E   0.25000  0.00000  0.87502
E10   E   0.25000  0.50000  0.37502
E11   E   0.25000  0.50000  0.87502
E12   E   0.36683  0.75000  0.25000
E13   E   0.36683  0.75000  0.75000
E14   E   0.38317  0.25000  0.62502
E15   E   0.50000  0.00000  0.00000
E16   E   0.50000  0.00000  0.50000
E17   E   0.50000  0.50000  0.00000
E18   E   0.50000  0.50000  0.50000
E19   E   0.61683  0.75000  0.37498
E20   E   0.63317  0.25000  0.25000
E21   E   0.63317  0.25000  0.75000
E22   E   0.75000  0.00000  0.12498
E23   E   0.75000  0.00000  0.62498
E24   E   0.75000  0.50000  0.12498
E25   E   0.75000  0.50000  0.62498
E26   E   0.86683  0.75000  0.25000
E27   E   0.86683  0.75000  0.75000
E28   E   0.88317  0.25000  0.87498
loop_
