data_thp-x_I-43d  hall_number: 516, V_con: 12
_audit_creation_date              2025-03-06
_audit_creation_method            'MOFbuilder_1.0'
_symmetry_space_group_name_H-M    'P1'
_symmetry_Int_Tables_number       1
_symmetry_cell_setting            triclinic
loop_
_symmetry_equiv_pos_as_xyz
  x,y,z
_cell_length_a                    20.0745
_cell_length_b                    20.0745
_cell_length_c                    20.0745
_cell_angle_alpha                 90.0
_cell_angle_beta                  90.0
_cell_angle_gamma                 90.0
loop_
_atom_site_label
_atom_site_type_symbol
_atom_site_fract_x
_atom_site_fract_y
_atom_site_fract_z
V1    V   0.00000  0.25000  0.37500
V2    V   0.00000  0.75000  0.12500
V3    V   0.12500  0.00000  0.75000
V4    V   0.25000  0.37500  0.00000
V5    V   0.25000  0.62500  0.50000
V6    V   0.37500  0.00000  0.25000
V7    V   0.50000  0.25000  0.62500
V8    V   0.50000  0.75000  0.87500
V9    V   0.62500  0.50000  0.25000
V10   V   0.75000  0.12500  0.00000
V11   V   0.75000  0.87500  0.50000
V12   V   0.87500  0.50000  0.75000
E1    E   0.00000  0.00000  0.25000
E2    E   0.00000  0.25000  0.00000
E3    E   0.00000  0.25000  0.75000
E4    E   0.00000  0.50000  0.25000
E5    E   0.00000  0.75000  0.50000
E6    E   0.00000  0.75000  0.75000
E7    E   0.06250  0.12500  0.56250
E8    E   0.06250  0.43750  0.87500
E9    E   0.06250  0.56250  0.62500
E10   E   0.06250  0.87500  0.93750
E11   E   0.12500  0.31250  0.18750
E12   E   0.12500  0.43750  0.43750
E13   E   0.12500  0.56250  0.06250
E14   E   0.12500  0.68750  0.31250
E15   E   0.18750  0.12500  0.31250
E16   E   0.18750  0.18750  0.87500
E17   E   0.18750  0.81250  0.62500
E18   E   0.18750  0.87500  0.18750
E19   E   0.25000  0.00000  0.00000
E20   E   0.25000  0.00000  0.50000
E21   E   0.25000  0.25000  0.50000
E22   E   0.25000  0.50000  0.25000
E23   E   0.25000  0.50000  0.75000
E24   E   0.25000  0.75000  0.00000
E25   E   0.31250  0.12500  0.68750
E26   E   0.31250  0.18750  0.12500
E27   E   0.31250  0.81250  0.37500
E28   E   0.31250  0.87500  0.81250
E29   E   0.37500  0.31250  0.81250
E30   E   0.37500  0.43750  0.56250
E31   E   0.37500  0.56250  0.93750
E32   E   0.37500  0.68750  0.68750
E33   E   0.43750  0.12500  0.43750
E34   E   0.43750  0.43750  0.12500
E35   E   0.43750  0.56250  0.37500
E36   E   0.43750  0.87500  0.06250
E37   E   0.50000  0.00000  0.75000
E38   E   0.50000  0.25000  0.00000
E39   E   0.50000  0.25000  0.25000
E40   E   0.50000  0.50000  0.75000
E41   E   0.50000  0.75000  0.25000
E42   E   0.50000  0.75000  0.50000
E43   E   0.56250  0.06250  0.12500
E44   E   0.56250  0.37500  0.43750
E45   E   0.56250  0.62500  0.06250
E46   E   0.56250  0.93750  0.37500
E47   E   0.62500  0.06250  0.56250
E48   E   0.62500  0.18750  0.81250
E49   E   0.62500  0.81250  0.68750
E50   E   0.62500  0.93750  0.93750
E51   E   0.68750  0.31250  0.12500
E52   E   0.68750  0.37500  0.68750
E53   E   0.68750  0.62500  0.81250
E54   E   0.68750  0.68750  0.37500
E55   E   0.75000  0.00000  0.25000
E56   E   0.75000  0.00000  0.75000
E57   E   0.75000  0.25000  0.50000
E58   E   0.75000  0.50000  0.00000
E59   E   0.75000  0.50000  0.50000
E60   E   0.75000  0.75000  0.00000
E61   E   0.81250  0.31250  0.87500
E62   E   0.81250  0.37500  0.31250
E63   E   0.81250  0.62500  0.18750
E64   E   0.81250  0.68750  0.62500
E65   E   0.87500  0.06250  0.43750
E66   E   0.87500  0.18750  0.18750
E67   E   0.87500  0.81250  0.31250
E68   E   0.87500  0.93750  0.06250
E69   E   0.93750  0.06250  0.87500
E70   E   0.93750  0.37500  0.56250
E71   E   0.93750  0.62500  0.93750
E72   E   0.93750  0.93750  0.62500
loop_
