data_tpr_P-6m2  hall_number: 481, V_con: 5, EC_con: 3
_audit_creation_date              2025-03-06
_audit_creation_method            'MOFbuilder_1.0'
_symmetry_space_group_name_H-M    'P1'
_symmetry_Int_Tables_number       1
_symmetry_cell_setting            triclinic
loop_
_symmetry_equiv_pos_as_xyz
  x,y,z
_cell_length_a                    37.3204
_cell_length_b                    37.3204
_cell_length_c                    10.0
_cell_angle_alpha                 90.0
_cell_angle_beta                  90.0
_cell_angle_gamma                 120.0
loop_
_atom_site_label
_atom_site_type_symbol
_atom_site_fract_x
_atom_site_fract_y
_atom_site_fract_z
V1    V   0.48803  0.24401  0.00000
V2    V   0.48803  0.24402  0.00000
V3    V   0.75598  0.24401  0.00000
V4    V   0.75598  0.51197  0.00000
V5    V   0.75599  0.24402  0.00000
V6    V   0.75599  0.51197  0.00000
EC1    EC   0.17863  0.08931  0.00000
EC2    EC   0.17863  0.08932  0.00000
EC3    EC   0.91068  0.08931  0.00000
EC4    EC   0.91068  0.82137  0.00000
EC5    EC   0.91069  0.08932  0.00000
EC6    EC   0.91069  0.82137  0.00000
E1    E   0.04466  0.08932  0.00000
E2    E   0.04466  0.95534  0.00000
E3    E   0.33333  0.16666  0.00000
E4    E   0.33333  0.16667  0.00000
E5    E   0.48803  0.24401  0.50000
E6    E   0.48803  0.24402  0.50000
E7    E   0.62201  0.24402  0.00000
E8    E   0.62201  0.37799  0.00000
E9    E   0.62201  0.24402  0.00000
E10   E   0.62201  0.37799  0.00000
E11   E   0.75598  0.24401  0.50000
E12   E   0.75598  0.37799  0.00000
E13   E   0.75598  0.37799  0.00000
E14   E   0.75598  0.51197  0.50000
E15   E   0.75599  0.24402  0.50000
E16   E   0.75599  0.51197  0.50000
E17   E   0.83333  0.16666  0.00000
E18   E   0.83333  0.66667  0.00000
E19   E   0.83334  0.16667  0.00000
E20   E   0.83334  0.66667  0.00000
E21   E   0.91068  0.95534  0.00000
loop_
