data_ttc_I4/mmm  hall_number: 424, V_con: 3, EC_con: 3
_audit_creation_date              2025-03-06
_audit_creation_method            'MOFbuilder_1.0'
_symmetry_space_group_name_H-M    'P1'
_symmetry_Int_Tables_number       1
_symmetry_cell_setting            triclinic
loop_
_symmetry_equiv_pos_as_xyz
  x,y,z
_cell_length_a                    47.6107
_cell_length_b                    47.6107
_cell_length_c                    48.854600000000005
_cell_angle_alpha                 90.0
_cell_angle_beta                  90.0
_cell_angle_gamma                 90.0
loop_
_atom_site_label
_atom_site_type_symbol
_atom_site_fract_x
_atom_site_fract_y
_atom_site_fract_z
V1    V   0.00000  0.18888  0.39765
V2    V   0.00000  0.18888  0.60235
V3    V   0.00000  0.81112  0.39765
V4    V   0.00000  0.81112  0.60235
V5    V   0.18888  0.00000  0.39765
V6    V   0.18888  0.00000  0.60235
V7    V   0.31112  0.50000  0.10235
V8    V   0.31112  0.50000  0.89765
V9    V   0.50000  0.31112  0.10235
V10   V   0.50000  0.31112  0.89765
V11   V   0.50000  0.68888  0.10235
V12   V   0.50000  0.68888  0.89765
V13   V   0.68888  0.50000  0.10235
V14   V   0.68888  0.50000  0.89765
V15   V   0.81112  0.00000  0.39765
V16   V   0.81112  0.00000  0.60235
EC1    EC   0.18886  0.18886  0.30809
EC2    EC   0.18886  0.18886  0.69191
EC3    EC   0.18886  0.81114  0.30809
EC4    EC   0.18886  0.81114  0.69191
EC5    EC   0.31114  0.31114  0.19191
EC6    EC   0.31114  0.31114  0.80809
EC7    EC   0.31114  0.68886  0.19191
EC8    EC   0.31114  0.68886  0.80809
EC9    EC   0.68886  0.31114  0.19191
EC10   EC   0.68886  0.31114  0.80809
EC11   EC   0.68886  0.68886  0.19191
EC12   EC   0.68886  0.68886  0.80809
EC13   EC   0.81114  0.18886  0.30809
EC14   EC   0.81114  0.18886  0.69191
EC15   EC   0.81114  0.81114  0.30809
EC16   EC   0.81114  0.81114  0.69191
E1    E   0.00000  0.18888  0.50000
E2    E   0.00000  0.81112  0.50000
E3    E   0.09443  0.18887  0.35287
E4    E   0.09443  0.18887  0.64713
E5    E   0.09443  0.81113  0.35287
E6    E   0.09443  0.81113  0.64713
E7    E   0.18887  0.09443  0.35287
E8    E   0.18887  0.09443  0.64713
E9    E   0.18887  0.90557  0.35287
E10   E   0.18887  0.90557  0.64713
E11   E   0.18888  0.00000  0.50000
E12   E   0.25000  0.25000  0.25000
E13   E   0.25000  0.25000  0.75000
E14   E   0.25000  0.75000  0.25000
E15   E   0.25000  0.75000  0.75000
E16   E   0.31112  0.50000  0.00000
E17   E   0.31113  0.40557  0.14713
E18   E   0.31113  0.40557  0.85287
E19   E   0.31113  0.59443  0.14713
E20   E   0.31113  0.59443  0.85287
E21   E   0.40557  0.31113  0.14713
E22   E   0.40557  0.31113  0.85287
E23   E   0.40557  0.68887  0.14713
E24   E   0.40557  0.68887  0.85287
E25   E   0.50000  0.31112  0.00000
E26   E   0.50000  0.68888  0.00000
E27   E   0.59443  0.31113  0.14713
E28   E   0.59443  0.31113  0.85287
E29   E   0.59443  0.68887  0.14713
E30   E   0.59443  0.68887  0.85287
E31   E   0.68887  0.40557  0.14713
E32   E   0.68887  0.40557  0.85287
E33   E   0.68887  0.59443  0.14713
E34   E   0.68887  0.59443  0.85287
E35   E   0.68888  0.50000  0.00000
E36   E   0.75000  0.25000  0.25000
E37   E   0.75000  0.25000  0.75000
E38   E   0.75000  0.75000  0.25000
E39   E   0.75000  0.75000  0.75000
E40   E   0.81112  0.00000  0.50000
E41   E   0.81113  0.09443  0.35287
E42   E   0.81113  0.09443  0.64713
E43   E   0.81113  0.90557  0.35287
E44   E   0.81113  0.90557  0.64713
E45   E   0.90557  0.18887  0.35287
E46   E   0.90557  0.18887  0.64713
E47   E   0.90557  0.81113  0.35287
E48   E   0.90557  0.81113  0.64713
loop_
