data_ubo_I41/acd:2  hall_number: 429, V_con: 4, EC_con: 4
_audit_creation_date              2025-03-06
_audit_creation_method            'MOFbuilder_1.0'
_symmetry_space_group_name_H-M    'P1'
_symmetry_Int_Tables_number       1
_symmetry_cell_setting            triclinic
loop_
_symmetry_equiv_pos_as_xyz
  x,y,z
_cell_length_a                    36.528800000000004
_cell_length_b                    36.528800000000004
_cell_length_c                    34.513
_cell_angle_alpha                 90.0
_cell_angle_beta                  90.0
_cell_angle_gamma                 90.0
loop_
_atom_site_label
_atom_site_type_symbol
_atom_site_fract_x
_atom_site_fract_y
_atom_site_fract_z
V1    V   0.00000  0.00000  0.00000
V2    V   0.00000  0.00000  0.50000
V3    V   0.00000  0.50000  0.00000
V4    V   0.00000  0.50000  0.50000
V5    V   0.25000  0.25000  0.25000
V6    V   0.25000  0.25000  0.75000
V7    V   0.25000  0.75000  0.25000
V8    V   0.25000  0.75000  0.75000
V9    V   0.50000  0.00000  0.00000
V10   V   0.50000  0.00000  0.50000
V11   V   0.50000  0.50000  0.00000
V12   V   0.50000  0.50000  0.50000
V13   V   0.75000  0.25000  0.25000
V14   V   0.75000  0.25000  0.75000
V15   V   0.75000  0.75000  0.25000
V16   V   0.75000  0.75000  0.75000
EC1    EC   0.13810  0.00000  0.75000
EC2    EC   0.13810  0.50000  0.25000
EC3    EC   0.25000  0.11190  0.50000
EC4    EC   0.25000  0.38810  0.00000
EC5    EC   0.25000  0.61190  0.50000
EC6    EC   0.25000  0.88810  0.00000
EC7    EC   0.36190  0.00000  0.25000
EC8    EC   0.36190  0.50000  0.75000
EC9    EC   0.63810  0.00000  0.75000
EC10   EC   0.63810  0.50000  0.25000
EC11   EC   0.75000  0.11190  0.00000
EC12   EC   0.75000  0.38810  0.50000
EC13   EC   0.75000  0.61190  0.00000
EC14   EC   0.75000  0.88810  0.50000
EC15   EC   0.86190  0.00000  0.25000
EC16   EC   0.86190  0.50000  0.75000
E1    E   0.06905  0.00000  0.62500
E2    E   0.06905  0.00000  0.87500
E3    E   0.06905  0.50000  0.12500
E4    E   0.06905  0.50000  0.37500
E5    E   0.12500  0.05595  0.50000
E6    E   0.12500  0.44405  0.00000
E7    E   0.12500  0.55595  0.50000
E8    E   0.12500  0.94405  0.00000
E9    E   0.19405  0.12500  0.75000
E10   E   0.19405  0.37500  0.25000
E11   E   0.19405  0.62500  0.25000
E12   E   0.19405  0.87500  0.75000
E13   E   0.25000  0.18095  0.37500
E14   E   0.25000  0.18095  0.62500
E15   E   0.25000  0.31905  0.12500
E16   E   0.25000  0.31905  0.87500
E17   E   0.25000  0.68095  0.37500
E18   E   0.25000  0.68095  0.62500
E19   E   0.25000  0.81905  0.12500
E20   E   0.25000  0.81905  0.87500
E21   E   0.30595  0.12500  0.25000
E22   E   0.30595  0.37500  0.75000
E23   E   0.30595  0.62500  0.75000
E24   E   0.30595  0.87500  0.25000
E25   E   0.37500  0.05595  0.50000
E26   E   0.37500  0.44405  0.00000
E27   E   0.37500  0.55595  0.50000
E28   E   0.37500  0.94405  0.00000
E29   E   0.43095  0.00000  0.12500
E30   E   0.43095  0.00000  0.37500
E31   E   0.43095  0.50000  0.62500
E32   E   0.43095  0.50000  0.87500
E33   E   0.56905  0.00000  0.62500
E34   E   0.56905  0.00000  0.87500
E35   E   0.56905  0.50000  0.12500
E36   E   0.56905  0.50000  0.37500
E37   E   0.62500  0.05595  0.00000
E38   E   0.62500  0.44405  0.50000
E39   E   0.62500  0.55595  0.00000
E40   E   0.62500  0.94405  0.50000
E41   E   0.69405  0.12500  0.75000
E42   E   0.69405  0.37500  0.25000
E43   E   0.69405  0.62500  0.25000
E44   E   0.69405  0.87500  0.75000
E45   E   0.75000  0.18095  0.12500
E46   E   0.75000  0.18095  0.87500
E47   E   0.75000  0.31905  0.37500
E48   E   0.75000  0.31905  0.62500
E49   E   0.75000  0.68095  0.12500
E50   E   0.75000  0.68095  0.87500
E51   E   0.75000  0.81905  0.37500
E52   E   0.75000  0.81905  0.62500
E53   E   0.80595  0.12500  0.25000
E54   E   0.80595  0.37500  0.75000
E55   E   0.80595  0.62500  0.75000
E56   E   0.80595  0.87500  0.25000
E57   E   0.87500  0.05595  0.00000
E58   E   0.87500  0.44405  0.50000
E59   E   0.87500  0.55595  0.00000
E60   E   0.87500  0.94405  0.50000
E61   E   0.93095  0.00000  0.12500
E62   E   0.93095  0.00000  0.37500
E63   E   0.93095  0.50000  0.62500
E64   E   0.93095  0.50000  0.87500
loop_
