data_ubt_Fm-3m  hall_number: 523, V_con: 5
_audit_creation_date              2025-03-06
_audit_creation_method            'MOFbuilder_1.0'
_symmetry_space_group_name_H-M    'P1'
_symmetry_Int_Tables_number       1
_symmetry_cell_setting            triclinic
loop_
_symmetry_equiv_pos_as_xyz
  x,y,z
_cell_length_a                    42.426199999999994
_cell_length_b                    42.426199999999994
_cell_length_c                    42.426199999999994
_cell_angle_alpha                 90.0
_cell_angle_beta                  90.0
_cell_angle_gamma                 90.0
loop_
_atom_site_label
_atom_site_type_symbol
_atom_site_fract_x
_atom_site_fract_y
_atom_site_fract_z
V1    V   0.00000  0.16667  0.16667
V2    V   0.00000  0.16667  0.83333
V3    V   0.00000  0.33333  0.33333
V4    V   0.00000  0.33333  0.66667
V5    V   0.00000  0.66667  0.33333
V6    V   0.00000  0.66667  0.66667
V7    V   0.00000  0.83333  0.16667
V8    V   0.00000  0.83333  0.83333
V9    V   0.16667  0.00000  0.16667
V10   V   0.16667  0.00000  0.83333
V11   V   0.16667  0.16667  0.00000
V12   V   0.16667  0.33333  0.50000
V13   V   0.16667  0.50000  0.33333
V14   V   0.16667  0.50000  0.66667
V15   V   0.16667  0.66667  0.50000
V16   V   0.16667  0.83333  0.00000
V17   V   0.33333  0.00000  0.33333
V18   V   0.33333  0.00000  0.66667
V19   V   0.33333  0.16667  0.50000
V20   V   0.33333  0.33333  0.00000
V21   V   0.33333  0.50000  0.16667
V22   V   0.33333  0.50000  0.83333
V23   V   0.33333  0.66667  0.00000
V24   V   0.33333  0.83333  0.50000
V25   V   0.50000  0.16667  0.33333
V26   V   0.50000  0.16667  0.66667
V27   V   0.50000  0.33333  0.16667
V28   V   0.50000  0.33333  0.83333
V29   V   0.50000  0.66667  0.16667
V30   V   0.50000  0.66667  0.83333
V31   V   0.50000  0.83333  0.33333
V32   V   0.50000  0.83333  0.66667
V33   V   0.66667  0.00000  0.33333
V34   V   0.66667  0.00000  0.66667
V35   V   0.66667  0.16667  0.50000
V36   V   0.66667  0.33333  0.00000
V37   V   0.66667  0.50000  0.16667
V38   V   0.66667  0.50000  0.83333
V39   V   0.66667  0.66667  0.00000
V40   V   0.66667  0.83333  0.50000
V41   V   0.83333  0.00000  0.16667
V42   V   0.83333  0.00000  0.83333
V43   V   0.83333  0.16667  0.00000
V44   V   0.83333  0.33333  0.50000
V45   V   0.83333  0.50000  0.33333
V46   V   0.83333  0.50000  0.66667
V47   V   0.83333  0.66667  0.50000
V48   V   0.83333  0.83333  0.00000
E1    E   0.00000  0.25000  0.25000
E2    E   0.00000  0.25000  0.75000
E3    E   0.00000  0.75000  0.25000
E4    E   0.00000  0.75000  0.75000
E5    E   0.08333  0.08333  0.16667
E6    E   0.08333  0.08333  0.83333
E7    E   0.08333  0.16667  0.08333
E8    E   0.08333  0.16667  0.91667
E9    E   0.08333  0.33333  0.41667
E10   E   0.08333  0.33333  0.58333
E11   E   0.08333  0.41667  0.33333
E12   E   0.08333  0.41667  0.66667
E13   E   0.08333  0.58333  0.33333
E14   E   0.08333  0.58333  0.66667
E15   E   0.08333  0.66667  0.41667
E16   E   0.08333  0.66667  0.58333
E17   E   0.08333  0.83333  0.08333
E18   E   0.08333  0.83333  0.91667
E19   E   0.08333  0.91667  0.16667
E20   E   0.08333  0.91667  0.83333
E21   E   0.16667  0.08333  0.08333
E22   E   0.16667  0.08333  0.91667
E23   E   0.16667  0.41667  0.41667
E24   E   0.16667  0.41667  0.58333
E25   E   0.16667  0.58333  0.41667
E26   E   0.16667  0.58333  0.58333
E27   E   0.16667  0.91667  0.08333
E28   E   0.16667  0.91667  0.91667
E29   E   0.25000  0.00000  0.25000
E30   E   0.25000  0.00000  0.75000
E31   E   0.25000  0.25000  0.00000
E32   E   0.25000  0.25000  0.50000
E33   E   0.25000  0.50000  0.25000
E34   E   0.25000  0.50000  0.75000
E35   E   0.25000  0.75000  0.00000
E36   E   0.25000  0.75000  0.50000
E37   E   0.33333  0.08333  0.41667
E38   E   0.33333  0.08333  0.58333
E39   E   0.33333  0.41667  0.08333
E40   E   0.33333  0.41667  0.91667
E41   E   0.33333  0.58333  0.08333
E42   E   0.33333  0.58333  0.91667
E43   E   0.33333  0.91667  0.41667
E44   E   0.33333  0.91667  0.58333
E45   E   0.41667  0.08333  0.33333
E46   E   0.41667  0.08333  0.66667
E47   E   0.41667  0.16667  0.41667
E48   E   0.41667  0.16667  0.58333
E49   E   0.41667  0.33333  0.08333
E50   E   0.41667  0.33333  0.91667
E51   E   0.41667  0.41667  0.16667
E52   E   0.41667  0.41667  0.83333
E53   E   0.41667  0.58333  0.16667
E54   E   0.41667  0.58333  0.83333
E55   E   0.41667  0.66667  0.08333
E56   E   0.41667  0.66667  0.91667
E57   E   0.41667  0.83333  0.41667
E58   E   0.41667  0.83333  0.58333
E59   E   0.41667  0.91667  0.33333
E60   E   0.41667  0.91667  0.66667
E61   E   0.50000  0.25000  0.25000
E62   E   0.50000  0.25000  0.75000
E63   E   0.50000  0.75000  0.25000
E64   E   0.50000  0.75000  0.75000
E65   E   0.58333  0.08333  0.33333
E66   E   0.58333  0.08333  0.66667
E67   E   0.58333  0.16667  0.41667
E68   E   0.58333  0.16667  0.58333
E69   E   0.58333  0.33333  0.08333
E70   E   0.58333  0.33333  0.91667
E71   E   0.58333  0.41667  0.16667
E72   E   0.58333  0.41667  0.83333
E73   E   0.58333  0.58333  0.16667
E74   E   0.58333  0.58333  0.83333
E75   E   0.58333  0.66667  0.08333
E76   E   0.58333  0.66667  0.91667
E77   E   0.58333  0.83333  0.41667
E78   E   0.58333  0.83333  0.58333
E79   E   0.58333  0.91667  0.33333
E80   E   0.58333  0.91667  0.66667
E81   E   0.66667  0.08333  0.41667
E82   E   0.66667  0.08333  0.58333
E83   E   0.66667  0.41667  0.08333
E84   E   0.66667  0.41667  0.91667
E85   E   0.66667  0.58333  0.08333
E86   E   0.66667  0.58333  0.91667
E87   E   0.66667  0.91667  0.41667
E88   E   0.66667  0.91667  0.58333
E89   E   0.75000  0.00000  0.25000
E90   E   0.75000  0.00000  0.75000
E91   E   0.75000  0.25000  0.00000
E92   E   0.75000  0.25000  0.50000
E93   E   0.75000  0.50000  0.25000
E94   E   0.75000  0.50000  0.75000
E95   E   0.75000  0.75000  0.00000
E96   E   0.75000  0.75000  0.50000
E97   E   0.83333  0.08333  0.08333
E98   E   0.83333  0.08333  0.91667
E99   E   0.83333  0.41667  0.41667
E100  E   0.83333  0.41667  0.58333
E101  E   0.83333  0.58333  0.41667
E102  E   0.83333  0.58333  0.58333
E103  E   0.83333  0.91667  0.08333
E104  E   0.83333  0.91667  0.91667
E105  E   0.91667  0.08333  0.16667
E106  E   0.91667  0.08333  0.83333
E107  E   0.91667  0.16667  0.08333
E108  E   0.91667  0.16667  0.91667
E109  E   0.91667  0.33333  0.41667
E110  E   0.91667  0.33333  0.58333
E111  E   0.91667  0.41667  0.33333
E112  E   0.91667  0.41667  0.66667
E113  E   0.91667  0.58333  0.33333
E114  E   0.91667  0.58333  0.66667
E115  E   0.91667  0.66667  0.41667
E116  E   0.91667  0.66667  0.58333
E117  E   0.91667  0.83333  0.08333
E118  E   0.91667  0.83333  0.91667
E119  E   0.91667  0.91667  0.16667
E120  E   0.91667  0.91667  0.83333
loop_
