data_ucp_Pm-3m  hall_number: 517, V_con: 4, EC_con: 3
_audit_creation_date              2025-03-06
_audit_creation_method            'MOFbuilder_1.0'
_symmetry_space_group_name_H-M    'P1'
_symmetry_Int_Tables_number       1
_symmetry_cell_setting            triclinic
loop_
_symmetry_equiv_pos_as_xyz
  x,y,z
_cell_length_a                    44.641000000000005
_cell_length_b                    44.641000000000005
_cell_length_c                    44.641000000000005
_cell_angle_alpha                 90.0
_cell_angle_beta                  90.0
_cell_angle_gamma                 90.0
loop_
_atom_site_label
_atom_site_type_symbol
_atom_site_fract_x
_atom_site_fract_y
_atom_site_fract_z
V1    V   0.24127  0.24127  0.50000
V2    V   0.24127  0.50000  0.24127
V3    V   0.24127  0.50000  0.75873
V4    V   0.24127  0.75873  0.50000
V5    V   0.50000  0.24127  0.24127
V6    V   0.50000  0.24127  0.75873
V7    V   0.50000  0.75873  0.24127
V8    V   0.50000  0.75873  0.75873
V9    V   0.75873  0.24127  0.50000
V10   V   0.75873  0.50000  0.24127
V11   V   0.75873  0.50000  0.75873
V12   V   0.75873  0.75873  0.50000
EC1    EC   0.11200  0.37061  0.37061
EC2    EC   0.11200  0.37061  0.62939
EC3    EC   0.11200  0.62939  0.37061
EC4    EC   0.11200  0.62939  0.62939
EC5    EC   0.37061  0.11200  0.37061
EC6    EC   0.37061  0.11200  0.62939
EC7    EC   0.37061  0.37061  0.11200
EC8    EC   0.37061  0.37061  0.88800
EC9    EC   0.37061  0.62939  0.11200
EC10   EC   0.37061  0.62939  0.88800
EC11   EC   0.37061  0.88800  0.37061
EC12   EC   0.37061  0.88800  0.62939
EC13   EC   0.62939  0.11200  0.37061
EC14   EC   0.62939  0.11200  0.62939
EC15   EC   0.62939  0.37061  0.11200
EC16   EC   0.62939  0.37061  0.88800
EC17   EC   0.62939  0.62939  0.11200
EC18   EC   0.62939  0.62939  0.88800
EC19   EC   0.62939  0.88800  0.37061
EC20   EC   0.62939  0.88800  0.62939
EC21   EC   0.88800  0.37061  0.37061
EC22   EC   0.88800  0.37061  0.62939
EC23   EC   0.88800  0.62939  0.37061
EC24   EC   0.88800  0.62939  0.62939
E1    E   0.00000  0.37061  0.37061
E2    E   0.00000  0.37061  0.62939
E3    E   0.00000  0.62939  0.37061
E4    E   0.00000  0.62939  0.62939
E5    E   0.17664  0.30594  0.43531
E6    E   0.17664  0.30594  0.56469
E7    E   0.17664  0.43531  0.30594
E8    E   0.17664  0.43531  0.69406
E9    E   0.17664  0.56469  0.30594
E10   E   0.17664  0.56469  0.69406
E11   E   0.17664  0.69406  0.43531
E12   E   0.17664  0.69406  0.56469
E13   E   0.30594  0.17664  0.43531
E14   E   0.30594  0.17664  0.56469
E15   E   0.30594  0.43531  0.17664
E16   E   0.30594  0.43531  0.82336
E17   E   0.30594  0.56469  0.17664
E18   E   0.30594  0.56469  0.82336
E19   E   0.30594  0.82336  0.43531
E20   E   0.30594  0.82336  0.56469
E21   E   0.37061  0.00000  0.37061
E22   E   0.37061  0.00000  0.62939
E23   E   0.37061  0.37061  0.00000
E24   E   0.37061  0.62939  0.00000
E25   E   0.43531  0.17664  0.30594
E26   E   0.43531  0.17664  0.69406
E27   E   0.43531  0.30594  0.17664
E28   E   0.43531  0.30594  0.82336
E29   E   0.43531  0.69406  0.17664
E30   E   0.43531  0.69406  0.82336
E31   E   0.43531  0.82336  0.30594
E32   E   0.43531  0.82336  0.69406
E33   E   0.56469  0.17664  0.30594
E34   E   0.56469  0.17664  0.69406
E35   E   0.56469  0.30594  0.17664
E36   E   0.56469  0.30594  0.82336
E37   E   0.56469  0.69406  0.17664
E38   E   0.56469  0.69406  0.82336
E39   E   0.56469  0.82336  0.30594
E40   E   0.56469  0.82336  0.69406
E41   E   0.62939  0.00000  0.37061
E42   E   0.62939  0.00000  0.62939
E43   E   0.62939  0.37061  0.00000
E44   E   0.62939  0.62939  0.00000
E45   E   0.69406  0.17664  0.43531
E46   E   0.69406  0.17664  0.56469
E47   E   0.69406  0.43531  0.17664
E48   E   0.69406  0.43531  0.82336
E49   E   0.69406  0.56469  0.17664
E50   E   0.69406  0.56469  0.82336
E51   E   0.69406  0.82336  0.43531
E52   E   0.69406  0.82336  0.56469
E53   E   0.82336  0.30594  0.43531
E54   E   0.82336  0.30594  0.56469
E55   E   0.82336  0.43531  0.30594
E56   E   0.82336  0.43531  0.69406
E57   E   0.82336  0.56469  0.30594
E58   E   0.82336  0.56469  0.69406
E59   E   0.82336  0.69406  0.43531
E60   E   0.82336  0.69406  0.56469
loop_
