data_uke_Fddd:2  hall_number: 336, V_con: 4
_audit_creation_date              2025-03-06
_audit_creation_method            'MOFbuilder_1.0'
_symmetry_space_group_name_H-M    'P1'
_symmetry_Int_Tables_number       1
_symmetry_cell_setting            triclinic
loop_
_symmetry_equiv_pos_as_xyz
  x,y,z
_cell_length_a                    18.999200000000002
_cell_length_b                    68.0743
_cell_length_c                    32.7956
_cell_angle_alpha                 90.0
_cell_angle_beta                  90.0
_cell_angle_gamma                 90.0
loop_
_atom_site_label
_atom_site_type_symbol
_atom_site_fract_x
_atom_site_fract_y
_atom_site_fract_z
V1    V   0.07279  0.05301  0.27443
V2    V   0.07279  0.19699  0.97557
V3    V   0.07279  0.55301  0.77443
V4    V   0.07279  0.69699  0.47557
V5    V   0.17721  0.05301  0.97557
V6    V   0.17721  0.19699  0.27443
V7    V   0.17721  0.55301  0.47557
V8    V   0.17721  0.69699  0.77443
V9    V   0.32279  0.30301  0.72557
V10   V   0.32279  0.44699  0.02443
V11   V   0.32279  0.80301  0.22557
V12   V   0.32279  0.94699  0.52443
V13   V   0.42721  0.30301  0.02443
V14   V   0.42721  0.44699  0.72557
V15   V   0.42721  0.80301  0.52443
V16   V   0.42721  0.94699  0.22557
V17   V   0.57279  0.05301  0.77443
V18   V   0.57279  0.19699  0.47557
V19   V   0.57279  0.55301  0.27443
V20   V   0.57279  0.69699  0.97557
V21   V   0.67721  0.05301  0.47557
V22   V   0.67721  0.19699  0.77443
V23   V   0.67721  0.55301  0.97557
V24   V   0.67721  0.69699  0.27443
V25   V   0.82279  0.30301  0.22557
V26   V   0.82279  0.44699  0.52443
V27   V   0.82279  0.80301  0.72557
V28   V   0.82279  0.94699  0.02443
V29   V   0.92721  0.30301  0.52443
V30   V   0.92721  0.44699  0.22557
V31   V   0.92721  0.80301  0.02443
V32   V   0.92721  0.94699  0.72557
E1    E   0.00000  0.00000  0.00000
E2    E   0.00000  0.25000  0.25000
E3    E   0.00000  0.50000  0.50000
E4    E   0.00000  0.75000  0.75000
E5    E   0.12500  0.05301  0.12500
E6    E   0.12500  0.12500  0.27443
E7    E   0.12500  0.12500  0.97557
E8    E   0.12500  0.19699  0.12500
E9    E   0.12500  0.30301  0.62500
E10   E   0.12500  0.44699  0.12500
E11   E   0.12500  0.55301  0.62500
E12   E   0.12500  0.62500  0.47557
E13   E   0.12500  0.62500  0.77443
E14   E   0.12500  0.69699  0.62500
E15   E   0.12500  0.80301  0.12500
E16   E   0.12500  0.94699  0.62500
E17   E   0.25000  0.00000  0.25000
E18   E   0.25000  0.25000  0.00000
E19   E   0.25000  0.50000  0.75000
E20   E   0.25000  0.75000  0.50000
E21   E   0.37500  0.05301  0.87500
E22   E   0.37500  0.19699  0.37500
E23   E   0.37500  0.30301  0.87500
E24   E   0.37500  0.37500  0.02443
E25   E   0.37500  0.37500  0.72557
E26   E   0.37500  0.44699  0.87500
E27   E   0.37500  0.55301  0.37500
E28   E   0.37500  0.69699  0.87500
E29   E   0.37500  0.80301  0.37500
E30   E   0.37500  0.87500  0.22557
E31   E   0.37500  0.87500  0.52443
E32   E   0.37500  0.94699  0.37500
E33   E   0.50000  0.00000  0.50000
E34   E   0.50000  0.25000  0.75000
E35   E   0.50000  0.50000  0.00000
E36   E   0.50000  0.75000  0.25000
E37   E   0.62500  0.05301  0.62500
E38   E   0.62500  0.12500  0.47557
E39   E   0.62500  0.12500  0.77443
E40   E   0.62500  0.19699  0.62500
E41   E   0.62500  0.30301  0.12500
E42   E   0.62500  0.44699  0.62500
E43   E   0.62500  0.55301  0.12500
E44   E   0.62500  0.62500  0.27443
E45   E   0.62500  0.62500  0.97557
E46   E   0.62500  0.69699  0.12500
E47   E   0.62500  0.80301  0.62500
E48   E   0.62500  0.94699  0.12500
E49   E   0.75000  0.00000  0.75000
E50   E   0.75000  0.25000  0.50000
E51   E   0.75000  0.50000  0.25000
E52   E   0.75000  0.75000  0.00000
E53   E   0.87500  0.05301  0.37500
E54   E   0.87500  0.19699  0.87500
E55   E   0.87500  0.30301  0.37500
E56   E   0.87500  0.37500  0.22557
E57   E   0.87500  0.37500  0.52443
E58   E   0.87500  0.44699  0.37500
E59   E   0.87500  0.55301  0.87500
E60   E   0.87500  0.69699  0.37500
E61   E   0.87500  0.80301  0.87500
E62   E   0.87500  0.87500  0.02443
E63   E   0.87500  0.87500  0.72557
E64   E   0.87500  0.94699  0.87500
loop_
