data_ukl_I41/a:2  hall_number: 365, V_con: 4
_audit_creation_date              2025-03-06
_audit_creation_method            'MOFbuilder_1.0'
_symmetry_space_group_name_H-M    'P1'
_symmetry_Int_Tables_number       1
_symmetry_cell_setting            triclinic
loop_
_symmetry_equiv_pos_as_xyz
  x,y,z
_cell_length_a                    17.986800000000002
_cell_length_b                    17.986800000000002
_cell_length_c                    43.9837
_cell_angle_alpha                 90.0
_cell_angle_beta                  90.0
_cell_angle_gamma                 90.0
loop_
_atom_site_label
_atom_site_type_symbol
_atom_site_fract_x
_atom_site_fract_y
_atom_site_fract_z
V1    V   0.17948  0.03772  0.81749
V2    V   0.17948  0.53772  0.18251
V3    V   0.21228  0.42948  0.43251
V4    V   0.21228  0.92948  0.56749
V5    V   0.28772  0.07052  0.06749
V6    V   0.28772  0.57052  0.93251
V7    V   0.32052  0.46228  0.68251
V8    V   0.32052  0.96228  0.31749
V9    V   0.67948  0.03772  0.68251
V10   V   0.67948  0.53772  0.31749
V11   V   0.71228  0.42948  0.06749
V12   V   0.71228  0.92948  0.93251
V13   V   0.78772  0.07052  0.43251
V14   V   0.78772  0.57052  0.56749
V15   V   0.82052  0.46228  0.81749
V16   V   0.82052  0.96228  0.18251
E1    E   0.00000  0.00000  0.50000
E2    E   0.00000  0.25000  0.43251
E3    E   0.00000  0.25000  0.81749
E4    E   0.00000  0.50000  0.50000
E5    E   0.00000  0.75000  0.18251
E6    E   0.00000  0.75000  0.56749
E7    E   0.05412  0.01640  0.12500
E8    E   0.05412  0.51640  0.87500
E9    E   0.23360  0.30412  0.12500
E10   E   0.23360  0.80412  0.87500
E11   E   0.25000  0.25000  0.75000
E12   E   0.25000  0.75000  0.25000
E13   E   0.26640  0.19588  0.37500
E14   E   0.26640  0.69588  0.62500
E15   E   0.44588  0.48360  0.37500
E16   E   0.44588  0.98360  0.62500
E17   E   0.50000  0.00000  0.00000
E18   E   0.50000  0.25000  0.06749
E19   E   0.50000  0.25000  0.68251
E20   E   0.50000  0.50000  0.00000
E21   E   0.50000  0.75000  0.31749
E22   E   0.50000  0.75000  0.93251
E23   E   0.55412  0.01640  0.37500
E24   E   0.55412  0.51640  0.62500
E25   E   0.73360  0.30412  0.37500
E26   E   0.73360  0.80412  0.62500
E27   E   0.75000  0.25000  0.75000
E28   E   0.75000  0.75000  0.25000
E29   E   0.76640  0.19588  0.12500
E30   E   0.76640  0.69588  0.87500
E31   E   0.94588  0.48360  0.12500
E32   E   0.94588  0.98360  0.87500
loop_
