data_ukm_Fddd:2  hall_number: 336, V_con: 4
_audit_creation_date              2025-03-06
_audit_creation_method            'MOFbuilder_1.0'
_symmetry_space_group_name_H-M    'P1'
_symmetry_Int_Tables_number       1
_symmetry_cell_setting            triclinic
loop_
_symmetry_equiv_pos_as_xyz
  x,y,z
_cell_length_a                    20.4135
_cell_length_b                    62.707899999999995
_cell_length_c                    29.8406
_cell_angle_alpha                 90.0
_cell_angle_beta                  90.0
_cell_angle_gamma                 90.0
loop_
_atom_site_label
_atom_site_type_symbol
_atom_site_fract_x
_atom_site_fract_y
_atom_site_fract_z
V1    V   0.08648  0.30615  0.95953
V2    V   0.08648  0.44385  0.79047
V3    V   0.08648  0.80615  0.45953
V4    V   0.08648  0.94385  0.29047
V5    V   0.16352  0.30615  0.29047
V6    V   0.16352  0.44385  0.45953
V7    V   0.16352  0.80615  0.79047
V8    V   0.16352  0.94385  0.95953
V9    V   0.33648  0.05615  0.54047
V10   V   0.33648  0.19385  0.70953
V11   V   0.33648  0.55615  0.04047
V12   V   0.33648  0.69385  0.20953
V13   V   0.41352  0.05615  0.20953
V14   V   0.41352  0.19385  0.04047
V15   V   0.41352  0.55615  0.70953
V16   V   0.41352  0.69385  0.54047
V17   V   0.58648  0.30615  0.45953
V18   V   0.58648  0.44385  0.29047
V19   V   0.58648  0.80615  0.95953
V20   V   0.58648  0.94385  0.79047
V21   V   0.66352  0.30615  0.79047
V22   V   0.66352  0.44385  0.95953
V23   V   0.66352  0.80615  0.29047
V24   V   0.66352  0.94385  0.45953
V25   V   0.83648  0.05615  0.04047
V26   V   0.83648  0.19385  0.20953
V27   V   0.83648  0.55615  0.54047
V28   V   0.83648  0.69385  0.70953
V29   V   0.91352  0.05615  0.70953
V30   V   0.91352  0.19385  0.54047
V31   V   0.91352  0.55615  0.20953
V32   V   0.91352  0.69385  0.04047
E1    E   0.00000  0.00000  0.00000
E2    E   0.00000  0.25000  0.25000
E3    E   0.00000  0.50000  0.50000
E4    E   0.00000  0.75000  0.75000
E5    E   0.08648  0.37500  0.87500
E6    E   0.08648  0.87500  0.37500
E7    E   0.12500  0.05615  0.62500
E8    E   0.12500  0.19385  0.62500
E9    E   0.12500  0.30615  0.12500
E10   E   0.12500  0.44385  0.62500
E11   E   0.12500  0.55615  0.12500
E12   E   0.12500  0.69385  0.12500
E13   E   0.12500  0.80615  0.62500
E14   E   0.12500  0.94385  0.12500
E15   E   0.16352  0.37500  0.37500
E16   E   0.16352  0.87500  0.87500
E17   E   0.25000  0.00000  0.25000
E18   E   0.25000  0.25000  0.00000
E19   E   0.25000  0.50000  0.75000
E20   E   0.25000  0.75000  0.50000
E21   E   0.33648  0.12500  0.62500
E22   E   0.33648  0.62500  0.12500
E23   E   0.37500  0.05615  0.37500
E24   E   0.37500  0.19385  0.87500
E25   E   0.37500  0.30615  0.37500
E26   E   0.37500  0.44385  0.37500
E27   E   0.37500  0.55615  0.87500
E28   E   0.37500  0.69385  0.37500
E29   E   0.37500  0.80615  0.87500
E30   E   0.37500  0.94385  0.87500
E31   E   0.41352  0.12500  0.12500
E32   E   0.41352  0.62500  0.62500
E33   E   0.50000  0.00000  0.50000
E34   E   0.50000  0.25000  0.75000
E35   E   0.50000  0.50000  0.00000
E36   E   0.50000  0.75000  0.25000
E37   E   0.58648  0.37500  0.37500
E38   E   0.58648  0.87500  0.87500
E39   E   0.62500  0.05615  0.12500
E40   E   0.62500  0.19385  0.12500
E41   E   0.62500  0.30615  0.62500
E42   E   0.62500  0.44385  0.12500
E43   E   0.62500  0.55615  0.62500
E44   E   0.62500  0.69385  0.62500
E45   E   0.62500  0.80615  0.12500
E46   E   0.62500  0.94385  0.62500
E47   E   0.66352  0.37500  0.87500
E48   E   0.66352  0.87500  0.37500
E49   E   0.75000  0.00000  0.75000
E50   E   0.75000  0.25000  0.50000
E51   E   0.75000  0.50000  0.25000
E52   E   0.75000  0.75000  0.00000
E53   E   0.83648  0.12500  0.12500
E54   E   0.83648  0.62500  0.62500
E55   E   0.87500  0.05615  0.87500
E56   E   0.87500  0.19385  0.37500
E57   E   0.87500  0.30615  0.87500
E58   E   0.87500  0.44385  0.87500
E59   E   0.87500  0.55615  0.37500
E60   E   0.87500  0.69385  0.87500
E61   E   0.87500  0.80615  0.37500
E62   E   0.87500  0.94385  0.37500
E63   E   0.91352  0.12500  0.62500
E64   E   0.91352  0.62500  0.12500
loop_
