data_uko_Ia-3  hall_number: 502, V_con: 4
_audit_creation_date              2025-03-06
_audit_creation_method            'MOFbuilder_1.0'
_symmetry_space_group_name_H-M    'P1'
_symmetry_Int_Tables_number       1
_symmetry_cell_setting            triclinic
loop_
_symmetry_equiv_pos_as_xyz
  x,y,z
_cell_length_a                    38.9928
_cell_length_b                    38.9928
_cell_length_c                    38.9928
_cell_angle_alpha                 90.0
_cell_angle_beta                  90.0
_cell_angle_gamma                 90.0
loop_
_atom_site_label
_atom_site_type_symbol
_atom_site_fract_x
_atom_site_fract_y
_atom_site_fract_z
V1    V   0.03916  0.12790  0.75924
V2    V   0.03916  0.37210  0.25924
V3    V   0.03916  0.62790  0.24076
V4    V   0.03916  0.87210  0.74076
V5    V   0.12790  0.24076  0.46084
V6    V   0.12790  0.25924  0.96084
V7    V   0.12790  0.74076  0.53916
V8    V   0.12790  0.75924  0.03916
V9    V   0.24076  0.03916  0.62790
V10   V   0.24076  0.46084  0.12790
V11   V   0.24076  0.53916  0.37210
V12   V   0.24076  0.96084  0.87210
V13   V   0.25924  0.03916  0.37210
V14   V   0.25924  0.46084  0.87210
V15   V   0.25924  0.53916  0.62790
V16   V   0.25924  0.96084  0.12790
V17   V   0.37210  0.24076  0.53916
V18   V   0.37210  0.25924  0.03916
V19   V   0.37210  0.74076  0.46084
V20   V   0.37210  0.75924  0.96084
V21   V   0.46084  0.12790  0.24076
V22   V   0.46084  0.37210  0.74076
V23   V   0.46084  0.62790  0.75924
V24   V   0.46084  0.87210  0.25924
V25   V   0.53916  0.12790  0.74076
V26   V   0.53916  0.37210  0.24076
V27   V   0.53916  0.62790  0.25924
V28   V   0.53916  0.87210  0.75924
V29   V   0.62790  0.24076  0.03916
V30   V   0.62790  0.25924  0.53916
V31   V   0.62790  0.74076  0.96084
V32   V   0.62790  0.75924  0.46084
V33   V   0.74076  0.03916  0.87210
V34   V   0.74076  0.46084  0.37210
V35   V   0.74076  0.53916  0.12790
V36   V   0.74076  0.96084  0.62790
V37   V   0.75924  0.03916  0.12790
V38   V   0.75924  0.46084  0.62790
V39   V   0.75924  0.53916  0.87210
V40   V   0.75924  0.96084  0.37210
V41   V   0.87210  0.24076  0.96084
V42   V   0.87210  0.25924  0.46084
V43   V   0.87210  0.74076  0.03916
V44   V   0.87210  0.75924  0.53916
V45   V   0.96084  0.12790  0.25924
V46   V   0.96084  0.37210  0.75924
V47   V   0.96084  0.62790  0.74076
V48   V   0.96084  0.87210  0.24076
E1    E   0.00000  0.25000  0.25924
E2    E   0.00000  0.25000  0.46084
E3    E   0.00000  0.25000  0.75924
E4    E   0.00000  0.25000  0.96084
E5    E   0.00000  0.75000  0.03916
E6    E   0.00000  0.75000  0.24076
E7    E   0.00000  0.75000  0.53916
E8    E   0.00000  0.75000  0.74076
E9    E   0.03916  0.00000  0.75000
E10   E   0.03916  0.50000  0.25000
E11   E   0.08353  0.19357  0.86004
E12   E   0.08353  0.30643  0.36004
E13   E   0.08353  0.69357  0.13996
E14   E   0.08353  0.80643  0.63996
E15   E   0.13996  0.08353  0.69357
E16   E   0.13996  0.41647  0.19357
E17   E   0.13996  0.58353  0.30643
E18   E   0.13996  0.91647  0.80643
E19   E   0.19357  0.13996  0.41647
E20   E   0.19357  0.36004  0.91647
E21   E   0.19357  0.63996  0.58353
E22   E   0.19357  0.86004  0.08353
E23   E   0.24076  0.00000  0.75000
E24   E   0.24076  0.50000  0.25000
E25   E   0.25000  0.03916  0.50000
E26   E   0.25000  0.24076  0.50000
E27   E   0.25000  0.25924  0.00000
E28   E   0.25000  0.46084  0.00000
E29   E   0.25000  0.53916  0.50000
E30   E   0.25000  0.74076  0.50000
E31   E   0.25000  0.75924  0.00000
E32   E   0.25000  0.96084  0.00000
E33   E   0.25924  0.00000  0.25000
E34   E   0.25924  0.50000  0.75000
E35   E   0.30643  0.13996  0.58353
E36   E   0.30643  0.36004  0.08353
E37   E   0.30643  0.63996  0.41647
E38   E   0.30643  0.86004  0.91647
E39   E   0.36004  0.08353  0.30643
E40   E   0.36004  0.41647  0.80643
E41   E   0.36004  0.58353  0.69357
E42   E   0.36004  0.91647  0.19357
E43   E   0.41647  0.19357  0.13996
E44   E   0.41647  0.30643  0.63996
E45   E   0.41647  0.69357  0.86004
E46   E   0.41647  0.80643  0.36004
E47   E   0.46084  0.00000  0.25000
E48   E   0.46084  0.50000  0.75000
E49   E   0.50000  0.25000  0.03916
E50   E   0.50000  0.25000  0.24076
E51   E   0.50000  0.25000  0.53916
E52   E   0.50000  0.25000  0.74076
E53   E   0.50000  0.75000  0.25924
E54   E   0.50000  0.75000  0.46084
E55   E   0.50000  0.75000  0.75924
E56   E   0.50000  0.75000  0.96084
E57   E   0.53916  0.00000  0.75000
E58   E   0.53916  0.50000  0.25000
E59   E   0.58353  0.19357  0.63996
E60   E   0.58353  0.30643  0.13996
E61   E   0.58353  0.69357  0.36004
E62   E   0.58353  0.80643  0.86004
E63   E   0.63996  0.08353  0.80643
E64   E   0.63996  0.41647  0.30643
E65   E   0.63996  0.58353  0.19357
E66   E   0.63996  0.91647  0.69357
E67   E   0.69357  0.13996  0.08353
E68   E   0.69357  0.36004  0.58353
E69   E   0.69357  0.63996  0.91647
E70   E   0.69357  0.86004  0.41647
E71   E   0.74076  0.00000  0.75000
E72   E   0.74076  0.50000  0.25000
E73   E   0.75000  0.03916  0.00000
E74   E   0.75000  0.24076  0.00000
E75   E   0.75000  0.25924  0.50000
E76   E   0.75000  0.46084  0.50000
E77   E   0.75000  0.53916  0.00000
E78   E   0.75000  0.74076  0.00000
E79   E   0.75000  0.75924  0.50000
E80   E   0.75000  0.96084  0.50000
E81   E   0.75924  0.00000  0.25000
E82   E   0.75924  0.50000  0.75000
E83   E   0.80643  0.13996  0.91647
E84   E   0.80643  0.36004  0.41647
E85   E   0.80643  0.63996  0.08353
E86   E   0.80643  0.86004  0.58353
E87   E   0.86004  0.08353  0.19357
E88   E   0.86004  0.41647  0.69357
E89   E   0.86004  0.58353  0.80643
E90   E   0.86004  0.91647  0.30643
E91   E   0.91647  0.19357  0.36004
E92   E   0.91647  0.30643  0.86004
E93   E   0.91647  0.69357  0.63996
E94   E   0.91647  0.80643  0.13996
E95   E   0.96084  0.00000  0.25000
E96   E   0.96084  0.50000  0.75000
loop_
