data_ulh_F4132  hall_number: 506, V_con: 4
_audit_creation_date              2025-03-06
_audit_creation_method            'MOFbuilder_1.0'
_symmetry_space_group_name_H-M    'P1'
_symmetry_Int_Tables_number       1
_symmetry_cell_setting            triclinic
loop_
_symmetry_equiv_pos_as_xyz
  x,y,z
_cell_length_a                    57.848699999999994
_cell_length_b                    57.848699999999994
_cell_length_c                    57.848699999999994
_cell_angle_alpha                 90.0
_cell_angle_beta                  90.0
_cell_angle_gamma                 90.0
loop_
_atom_site_label
_atom_site_type_symbol
_atom_site_fract_x
_atom_site_fract_y
_atom_site_fract_z
V1    V   0.00852  0.14943  0.41399
V2    V   0.00852  0.35057  0.08601
V3    V   0.00852  0.64943  0.91399
V4    V   0.00852  0.85057  0.58601
V5    V   0.08601  0.00852  0.35057
V6    V   0.08601  0.49148  0.14943
V7    V   0.08601  0.50852  0.85057
V8    V   0.08601  0.99148  0.64943
V9    V   0.10057  0.24148  0.83601
V10   V   0.10057  0.25852  0.66399
V11   V   0.10057  0.74148  0.33601
V12   V   0.10057  0.75852  0.16399
V13   V   0.14943  0.08601  0.49148
V14   V   0.14943  0.41399  0.00852
V15   V   0.14943  0.58601  0.99148
V16   V   0.14943  0.91399  0.50852
V17   V   0.16399  0.10057  0.75852
V18   V   0.16399  0.39943  0.74148
V19   V   0.16399  0.60057  0.25852
V20   V   0.16399  0.89943  0.24148
V21   V   0.24148  0.16399  0.89943
V22   V   0.24148  0.33601  0.60057
V23   V   0.24148  0.66399  0.39943
V24   V   0.24148  0.83601  0.10057
V25   V   0.25852  0.16399  0.60057
V26   V   0.25852  0.33601  0.89943
V27   V   0.25852  0.66399  0.10057
V28   V   0.25852  0.83601  0.39943
V29   V   0.33601  0.10057  0.74148
V30   V   0.33601  0.39943  0.75852
V31   V   0.33601  0.60057  0.24148
V32   V   0.33601  0.89943  0.25852
V33   V   0.35057  0.08601  0.00852
V34   V   0.35057  0.41399  0.49148
V35   V   0.35057  0.58601  0.50852
V36   V   0.35057  0.91399  0.99148
V37   V   0.39943  0.24148  0.66399
V38   V   0.39943  0.25852  0.83601
V39   V   0.39943  0.74148  0.16399
V40   V   0.39943  0.75852  0.33601
V41   V   0.41399  0.00852  0.14943
V42   V   0.41399  0.49148  0.35057
V43   V   0.41399  0.50852  0.64943
V44   V   0.41399  0.99148  0.85057
V45   V   0.49148  0.14943  0.08601
V46   V   0.49148  0.35057  0.41399
V47   V   0.49148  0.64943  0.58601
V48   V   0.49148  0.85057  0.91399
V49   V   0.50852  0.14943  0.91399
V50   V   0.50852  0.35057  0.58601
V51   V   0.50852  0.64943  0.41399
V52   V   0.50852  0.85057  0.08601
V53   V   0.58601  0.00852  0.85057
V54   V   0.58601  0.49148  0.64943
V55   V   0.58601  0.50852  0.35057
V56   V   0.58601  0.99148  0.14943
V57   V   0.60057  0.24148  0.33601
V58   V   0.60057  0.25852  0.16399
V59   V   0.60057  0.74148  0.83601
V60   V   0.60057  0.75852  0.66399
V61   V   0.64943  0.08601  0.99148
V62   V   0.64943  0.41399  0.50852
V63   V   0.64943  0.58601  0.49148
V64   V   0.64943  0.91399  0.00852
V65   V   0.66399  0.10057  0.25852
V66   V   0.66399  0.39943  0.24148
V67   V   0.66399  0.60057  0.75852
V68   V   0.66399  0.89943  0.74148
V69   V   0.74148  0.16399  0.39943
V70   V   0.74148  0.33601  0.10057
V71   V   0.74148  0.66399  0.89943
V72   V   0.74148  0.83601  0.60057
V73   V   0.75852  0.16399  0.10057
V74   V   0.75852  0.33601  0.39943
V75   V   0.75852  0.66399  0.60057
V76   V   0.75852  0.83601  0.89943
V77   V   0.83601  0.10057  0.24148
V78   V   0.83601  0.39943  0.25852
V79   V   0.83601  0.60057  0.74148
V80   V   0.83601  0.89943  0.75852
V81   V   0.85057  0.08601  0.50852
V82   V   0.85057  0.41399  0.99148
V83   V   0.85057  0.58601  0.00852
V84   V   0.85057  0.91399  0.49148
V85   V   0.89943  0.24148  0.16399
V86   V   0.89943  0.25852  0.33601
V87   V   0.89943  0.74148  0.66399
V88   V   0.89943  0.75852  0.83601
V89   V   0.91399  0.00852  0.64943
V90   V   0.91399  0.49148  0.85057
V91   V   0.91399  0.50852  0.14943
V92   V   0.91399  0.99148  0.35057
V93   V   0.99148  0.14943  0.58601
V94   V   0.99148  0.35057  0.91399
V95   V   0.99148  0.64943  0.08601
V96   V   0.99148  0.85057  0.41399
E1    E   0.00000  0.00000  0.35057
E2    E   0.00000  0.00000  0.64943
E3    E   0.00000  0.14943  0.50000
E4    E   0.00000  0.35057  0.00000
E5    E   0.00000  0.50000  0.14943
E6    E   0.00000  0.50000  0.85057
E7    E   0.00000  0.64943  0.00000
E8    E   0.00000  0.85057  0.50000
E9    E   0.04603  0.20397  0.62500
E10   E   0.04603  0.29603  0.87500
E11   E   0.04603  0.70397  0.12500
E12   E   0.04603  0.79603  0.37500
E13   E   0.04603  0.20397  0.62500
E14   E   0.04603  0.29603  0.87500
E15   E   0.04603  0.70397  0.12500
E16   E   0.04603  0.79603  0.37500
E17   E   0.04726  0.07897  0.38228
E18   E   0.04726  0.42103  0.11772
E19   E   0.04726  0.57897  0.88228
E20   E   0.04726  0.92103  0.61772
E21   E   0.07897  0.11772  0.45274
E22   E   0.07897  0.38228  0.04726
E23   E   0.07897  0.61772  0.95274
E24   E   0.07897  0.88228  0.54726
E25   E   0.10057  0.25000  0.75000
E26   E   0.10057  0.75000  0.25000
E27   E   0.11772  0.04726  0.42103
E28   E   0.11772  0.45274  0.07897
E29   E   0.11772  0.54726  0.92103
E30   E   0.11772  0.95274  0.57897
E31   E   0.12500  0.04603  0.70397
E32   E   0.12500  0.04603  0.70397
E33   E   0.12500  0.45397  0.79603
E34   E   0.12500  0.54603  0.20397
E35   E   0.12500  0.95397  0.29603
E36   E   0.13228  0.17103  0.79726
E37   E   0.13228  0.32897  0.70274
E38   E   0.13228  0.67103  0.29726
E39   E   0.13228  0.82897  0.20274
E40   E   0.14943  0.00000  0.50000
E41   E   0.14943  0.50000  0.00000
E42   E   0.17103  0.20274  0.86772
E43   E   0.17103  0.29726  0.63228
E44   E   0.17103  0.70274  0.36772
E45   E   0.17103  0.79726  0.13228
E46   E   0.20274  0.13228  0.82897
E47   E   0.20274  0.36772  0.67103
E48   E   0.20274  0.63228  0.32897
E49   E   0.20274  0.86772  0.17103
E50   E   0.20397  0.12500  0.54603
E51   E   0.20397  0.37500  0.95397
E52   E   0.20397  0.62500  0.04603
E53   E   0.20397  0.62500  0.04603
E54   E   0.20397  0.87500  0.45397
E55   E   0.25000  0.10057  0.75000
E56   E   0.25000  0.25000  0.60057
E57   E   0.25000  0.25000  0.89943
E58   E   0.25000  0.39943  0.75000
E59   E   0.25000  0.60057  0.25000
E60   E   0.25000  0.75000  0.10057
E61   E   0.25000  0.75000  0.39943
E62   E   0.25000  0.89943  0.25000
E63   E   0.29603  0.12500  0.95397
E64   E   0.29603  0.37500  0.54603
E65   E   0.29603  0.62500  0.45397
E66   E   0.29603  0.87500  0.04603
E67   E   0.29603  0.87500  0.04603
E68   E   0.29726  0.13228  0.67103
E69   E   0.29726  0.36772  0.82897
E70   E   0.29726  0.63228  0.17103
E71   E   0.29726  0.86772  0.32897
E72   E   0.32897  0.20274  0.63228
E73   E   0.32897  0.29726  0.86772
E74   E   0.32897  0.70274  0.13228
E75   E   0.32897  0.79726  0.36772
E76   E   0.35057  0.00000  0.00000
E77   E   0.35057  0.50000  0.50000
E78   E   0.36772  0.17103  0.70274
E79   E   0.36772  0.32897  0.79726
E80   E   0.36772  0.67103  0.20274
E81   E   0.36772  0.82897  0.29726
E82   E   0.37500  0.04603  0.79603
E83   E   0.37500  0.04603  0.79603
E84   E   0.37500  0.45397  0.70397
E85   E   0.37500  0.54603  0.29603
E86   E   0.37500  0.95397  0.20397
E87   E   0.38228  0.04726  0.07897
E88   E   0.38228  0.45274  0.42103
E89   E   0.38228  0.54726  0.57897
E90   E   0.38228  0.95274  0.92103
E91   E   0.39943  0.25000  0.75000
E92   E   0.39943  0.75000  0.25000
E93   E   0.42103  0.11772  0.04726
E94   E   0.42103  0.38228  0.45274
E95   E   0.42103  0.61772  0.54726
E96   E   0.42103  0.88228  0.95274
E97   E   0.45274  0.07897  0.11772
E98   E   0.45274  0.42103  0.38228
E99   E   0.45274  0.57897  0.61772
E100  E   0.45274  0.92103  0.88228
E101  E   0.45397  0.20397  0.87500
E102  E   0.45397  0.29603  0.62500
E103  E   0.45397  0.70397  0.37500
E104  E   0.45397  0.79603  0.12500
E105  E   0.50000  0.00000  0.14943
E106  E   0.50000  0.00000  0.85057
E107  E   0.50000  0.14943  0.00000
E108  E   0.50000  0.35057  0.50000
E109  E   0.50000  0.50000  0.35057
E110  E   0.50000  0.50000  0.64943
E111  E   0.50000  0.64943  0.50000
E112  E   0.50000  0.85057  0.00000
E113  E   0.54603  0.20397  0.12500
E114  E   0.54603  0.29603  0.37500
E115  E   0.54603  0.70397  0.62500
E116  E   0.54603  0.79603  0.87500
E117  E   0.54726  0.07897  0.88228
E118  E   0.54726  0.42103  0.61772
E119  E   0.54726  0.57897  0.38228
E120  E   0.54726  0.92103  0.11772
E121  E   0.57897  0.11772  0.95274
E122  E   0.57897  0.38228  0.54726
E123  E   0.57897  0.61772  0.45274
E124  E   0.57897  0.88228  0.04726
E125  E   0.60057  0.25000  0.25000
E126  E   0.60057  0.75000  0.75000
E127  E   0.61772  0.04726  0.92103
E128  E   0.61772  0.45274  0.57897
E129  E   0.61772  0.54726  0.42103
E130  E   0.61772  0.95274  0.07897
E131  E   0.62500  0.04603  0.20397
E132  E   0.62500  0.04603  0.20397
E133  E   0.62500  0.45397  0.29603
E134  E   0.62500  0.54603  0.70397
E135  E   0.62500  0.95397  0.79603
E136  E   0.63228  0.17103  0.29726
E137  E   0.63228  0.32897  0.20274
E138  E   0.63228  0.67103  0.79726
E139  E   0.63228  0.82897  0.70274
E140  E   0.64943  0.00000  0.00000
E141  E   0.64943  0.50000  0.50000
E142  E   0.67103  0.20274  0.36772
E143  E   0.67103  0.29726  0.13228
E144  E   0.67103  0.70274  0.86772
E145  E   0.67103  0.79726  0.63228
E146  E   0.70274  0.13228  0.32897
E147  E   0.70274  0.36772  0.17103
E148  E   0.70274  0.63228  0.82897
E149  E   0.70274  0.86772  0.67103
E150  E   0.70397  0.12500  0.04603
E151  E   0.70397  0.12500  0.04603
E152  E   0.70397  0.37500  0.45397
E153  E   0.70397  0.62500  0.54603
E154  E   0.70397  0.87500  0.95397
E155  E   0.75000  0.10057  0.25000
E156  E   0.75000  0.25000  0.10057
E157  E   0.75000  0.25000  0.39943
E158  E   0.75000  0.39943  0.25000
E159  E   0.75000  0.60057  0.75000
E160  E   0.75000  0.75000  0.60057
E161  E   0.75000  0.75000  0.89943
E162  E   0.75000  0.89943  0.75000
E163  E   0.79603  0.12500  0.45397
E164  E   0.79603  0.37500  0.04603
E165  E   0.79603  0.37500  0.04603
E166  E   0.79603  0.62500  0.95397
E167  E   0.79603  0.87500  0.54603
E168  E   0.79726  0.13228  0.17103
E169  E   0.79726  0.36772  0.32897
E170  E   0.79726  0.63228  0.67103
E171  E   0.79726  0.86772  0.82897
E172  E   0.82897  0.20274  0.13228
E173  E   0.82897  0.29726  0.36772
E174  E   0.82897  0.70274  0.63228
E175  E   0.82897  0.79726  0.86772
E176  E   0.85057  0.00000  0.50000
E177  E   0.85057  0.50000  0.00000
E178  E   0.86772  0.17103  0.20274
E179  E   0.86772  0.32897  0.29726
E180  E   0.86772  0.67103  0.70274
E181  E   0.86772  0.82897  0.79726
E182  E   0.87500  0.04603  0.29603
E183  E   0.87500  0.04603  0.29603
E184  E   0.87500  0.45397  0.20397
E185  E   0.87500  0.54603  0.79603
E186  E   0.87500  0.95397  0.70397
E187  E   0.88228  0.04726  0.57897
E188  E   0.88228  0.45274  0.92103
E189  E   0.88228  0.54726  0.07897
E190  E   0.88228  0.95274  0.42103
E191  E   0.89943  0.25000  0.25000
E192  E   0.89943  0.75000  0.75000
E193  E   0.92103  0.11772  0.54726
E194  E   0.92103  0.38228  0.95274
E195  E   0.92103  0.61772  0.04726
E196  E   0.92103  0.88228  0.45274
E197  E   0.95274  0.07897  0.61772
E198  E   0.95274  0.42103  0.88228
E199  E   0.95274  0.57897  0.11772
E200  E   0.95274  0.92103  0.38228
E201  E   0.95397  0.20397  0.37500
E202  E   0.95397  0.29603  0.12500
E203  E   0.95397  0.70397  0.87500
E204  E   0.95397  0.79603  0.62500
loop_
