data_umb_P6222  hall_number: 474, V_con: 4
_audit_creation_date              2025-03-06
_audit_creation_method            'MOFbuilder_1.0'
_symmetry_space_group_name_H-M    'P1'
_symmetry_Int_Tables_number       1
_symmetry_cell_setting            triclinic
loop_
_symmetry_equiv_pos_as_xyz
  x,y,z
_cell_length_a                    34.7519
_cell_length_b                    34.7519
_cell_length_c                    23.8793
_cell_angle_alpha                 90.0
_cell_angle_beta                  90.0
_cell_angle_gamma                 120.0
loop_
_atom_site_label
_atom_site_type_symbol
_atom_site_fract_x
_atom_site_fract_y
_atom_site_fract_z
V1    V   0.16310  0.55416  0.37223
V2    V   0.16310  0.60894  0.96111
V3    V   0.39106  0.55416  0.62777
V4    V   0.39106  0.83690  0.70556
V5    V   0.44584  0.60894  0.03889
V6    V   0.44584  0.83690  0.29444
V7    V   0.55416  0.16310  0.29444
V8    V   0.55416  0.39106  0.03889
V9    V   0.60894  0.16310  0.70556
V10   V   0.60894  0.44584  0.62777
V11   V   0.83690  0.39106  0.96111
V12   V   0.83690  0.44584  0.37223
E1    E   0.00000  0.50000  0.37223
E2    E   0.00000  0.50000  0.96111
E3    E   0.16310  0.58155  0.16667
E4    E   0.16310  0.58155  0.16667
E5    E   0.27708  0.55416  0.50000
E6    E   0.27708  0.55416  0.50000
E7    E   0.27708  0.72292  0.83333
E8    E   0.27708  0.72292  0.83334
E9    E   0.30447  0.60894  0.00000
E10   E   0.30447  0.60894  1.00000
E11   E   0.30447  0.69553  0.33333
E12   E   0.30447  0.69553  0.33334
E13   E   0.39106  0.69553  0.66666
E14   E   0.39106  0.69553  0.66667
E15   E   0.41845  0.58155  0.83333
E16   E   0.41845  0.83690  0.50000
E17   E   0.44584  0.72292  0.16666
E18   E   0.44584  0.72292  0.16667
E19   E   0.50000  0.00000  0.29444
E20   E   0.50000  0.00000  0.70556
E21   E   0.50000  0.50000  0.03889
E22   E   0.50000  0.50000  0.62777
E23   E   0.55416  0.27708  0.16666
E24   E   0.55416  0.27708  0.16667
E25   E   0.58155  0.16310  0.50000
E26   E   0.58155  0.41845  0.83333
E27   E   0.60894  0.30447  0.66666
E28   E   0.60894  0.30447  0.66667
E29   E   0.69553  0.30447  0.33333
E30   E   0.69553  0.30447  0.33334
E31   E   0.69553  0.39106  0.00000
E32   E   0.69553  0.39106  1.00000
E33   E   0.72292  0.27708  0.83333
E34   E   0.72292  0.27708  0.83334
E35   E   0.72292  0.44584  0.50000
E36   E   0.72292  0.44584  0.50000
E37   E   0.83690  0.41845  0.16667
E38   E   0.83690  0.41845  0.16667
loop_
