data_umc_Cccm  hall_number: 313, V_con: 4
_audit_creation_date              2025-03-06
_audit_creation_method            'MOFbuilder_1.0'
_symmetry_space_group_name_H-M    'P1'
_symmetry_Int_Tables_number       1
_symmetry_cell_setting            triclinic
loop_
_symmetry_equiv_pos_as_xyz
  x,y,z
_cell_length_a                    29.9714
_cell_length_b                    25.8691
_cell_length_c                    36.848299999999995
_cell_angle_alpha                 90.0
_cell_angle_beta                  90.0
_cell_angle_gamma                 90.0
loop_
_atom_site_label
_atom_site_type_symbol
_atom_site_fract_x
_atom_site_fract_y
_atom_site_fract_z
V1    V   0.14054  0.39586  0.36431
V2    V   0.14054  0.39586  0.63569
V3    V   0.14054  0.60414  0.13569
V4    V   0.14054  0.60414  0.86431
V5    V   0.35946  0.10414  0.36431
V6    V   0.35946  0.10414  0.63569
V7    V   0.35946  0.89586  0.13569
V8    V   0.35946  0.89586  0.86431
V9    V   0.64054  0.10414  0.13569
V10   V   0.64054  0.10414  0.86431
V11   V   0.64054  0.89586  0.36431
V12   V   0.64054  0.89586  0.63569
V13   V   0.85946  0.39586  0.13569
V14   V   0.85946  0.39586  0.86431
V15   V   0.85946  0.60414  0.36431
V16   V   0.85946  0.60414  0.63569
E1    E   0.00000  0.50000  0.13569
E2    E   0.00000  0.50000  0.36431
E3    E   0.00000  0.50000  0.63569
E4    E   0.00000  0.50000  0.86431
E5    E   0.14054  0.39586  0.50000
E6    E   0.14054  0.50000  0.25000
E7    E   0.14054  0.50000  0.75000
E8    E   0.14054  0.60414  0.00000
E9    E   0.25000  0.25000  0.36431
E10   E   0.25000  0.25000  0.63569
E11   E   0.25000  0.75000  0.13569
E12   E   0.25000  0.75000  0.86431
E13   E   0.35946  0.00000  0.25000
E14   E   0.35946  0.00000  0.75000
E15   E   0.35946  0.10414  0.50000
E16   E   0.35946  0.89586  0.00000
E17   E   0.50000  0.00000  0.13569
E18   E   0.50000  0.00000  0.36431
E19   E   0.50000  0.00000  0.63569
E20   E   0.50000  0.00000  0.86431
E21   E   0.64054  0.00000  0.25000
E22   E   0.64054  0.00000  0.75000
E23   E   0.64054  0.10414  0.00000
E24   E   0.64054  0.89586  0.50000
E25   E   0.75000  0.25000  0.13569
E26   E   0.75000  0.25000  0.86431
E27   E   0.75000  0.75000  0.36431
E28   E   0.75000  0.75000  0.63569
E29   E   0.85946  0.39586  0.00000
E30   E   0.85946  0.50000  0.25000
E31   E   0.85946  0.50000  0.75000
E32   E   0.85946  0.60414  0.50000
loop_
