data_umd_P42/mcm  hall_number: 413, V_con: 4
_audit_creation_date              2025-03-06
_audit_creation_method            'MOFbuilder_1.0'
_symmetry_space_group_name_H-M    'P1'
_symmetry_Int_Tables_number       1
_symmetry_cell_setting            triclinic
loop_
_symmetry_equiv_pos_as_xyz
  x,y,z
_cell_length_a                    27.8123
_cell_length_b                    27.8123
_cell_length_c                    37.2932
_cell_angle_alpha                 90.0
_cell_angle_beta                  90.0
_cell_angle_gamma                 90.0
loop_
_atom_site_label
_atom_site_type_symbol
_atom_site_fract_x
_atom_site_fract_y
_atom_site_fract_z
V1    V   0.15544  0.40969  0.13407
V2    V   0.15544  0.40969  0.86593
V3    V   0.15544  0.59031  0.36593
V4    V   0.15544  0.59031  0.63407
V5    V   0.40969  0.15544  0.13407
V6    V   0.40969  0.15544  0.86593
V7    V   0.40969  0.84456  0.36593
V8    V   0.40969  0.84456  0.63407
V9    V   0.59031  0.15544  0.36593
V10   V   0.59031  0.15544  0.63407
V11   V   0.59031  0.84456  0.13407
V12   V   0.59031  0.84456  0.86593
V13   V   0.84456  0.40969  0.36593
V14   V   0.84456  0.40969  0.63407
V15   V   0.84456  0.59031  0.13407
V16   V   0.84456  0.59031  0.86593
E1    E   0.00000  0.50000  0.13407
E2    E   0.00000  0.50000  0.36593
E3    E   0.00000  0.50000  0.63407
E4    E   0.00000  0.50000  0.86593
E5    E   0.15544  0.40969  0.00000
E6    E   0.15544  0.50000  0.25000
E7    E   0.15544  0.50000  0.75000
E8    E   0.15544  0.59031  0.50000
E9    E   0.28256  0.28256  0.13407
E10   E   0.28256  0.28256  0.86593
E11   E   0.28256  0.71744  0.36593
E12   E   0.28256  0.71744  0.63407
E13   E   0.40969  0.15544  0.00000
E14   E   0.40969  0.84456  0.50000
E15   E   0.50000  0.00000  0.13407
E16   E   0.50000  0.00000  0.36593
E17   E   0.50000  0.00000  0.63407
E18   E   0.50000  0.00000  0.86593
E19   E   0.50000  0.15544  0.25000
E20   E   0.50000  0.15544  0.75000
E21   E   0.50000  0.84456  0.25000
E22   E   0.50000  0.84456  0.75000
E23   E   0.59031  0.15544  0.50000
E24   E   0.59031  0.84456  0.00000
E25   E   0.71744  0.28256  0.36593
E26   E   0.71744  0.28256  0.63407
E27   E   0.71744  0.71744  0.13407
E28   E   0.71744  0.71744  0.86593
E29   E   0.84456  0.40969  0.50000
E30   E   0.84456  0.50000  0.25000
E31   E   0.84456  0.50000  0.75000
E32   E   0.84456  0.59031  0.00000
loop_
