data_ume_I4122  hall_number: 375, V_con: 4
_audit_creation_date              2025-03-06
_audit_creation_method            'MOFbuilder_1.0'
_symmetry_space_group_name_H-M    'P1'
_symmetry_Int_Tables_number       1
_symmetry_cell_setting            triclinic
loop_
_symmetry_equiv_pos_as_xyz
  x,y,z
_cell_length_a                    19.747799999999998
_cell_length_b                    19.747799999999998
_cell_length_c                    72.40520000000001
_cell_angle_alpha                 90.0
_cell_angle_beta                  90.0
_cell_angle_gamma                 90.0
loop_
_atom_site_label
_atom_site_type_symbol
_atom_site_fract_x
_atom_site_fract_y
_atom_site_fract_z
V1    V   0.04008  0.25000  0.55594
V2    V   0.04008  0.25000  0.69406
V3    V   0.25000  0.04008  0.30594
V4    V   0.25000  0.04008  0.44406
V5    V   0.25000  0.45992  0.80594
V6    V   0.25000  0.45992  0.94406
V7    V   0.45992  0.25000  0.05594
V8    V   0.45992  0.25000  0.19406
V9    V   0.54008  0.75000  0.05594
V10   V   0.54008  0.75000  0.19406
V11   V   0.75000  0.54008  0.80594
V12   V   0.75000  0.54008  0.94406
V13   V   0.75000  0.95992  0.30594
V14   V   0.75000  0.95992  0.44406
V15   V   0.95992  0.75000  0.55594
V16   V   0.95992  0.75000  0.69406
E1    E   0.00000  0.00000  0.30594
E2    E   0.00000  0.00000  0.44406
E3    E   0.00000  0.00000  0.55594
E4    E   0.00000  0.00000  0.69406
E5    E   0.00000  0.50000  0.55594
E6    E   0.00000  0.50000  0.69406
E7    E   0.00000  0.50000  0.80594
E8    E   0.00000  0.50000  0.94406
E9    E   0.04008  0.25000  0.62500
E10   E   0.14504  0.14504  0.50000
E11   E   0.14504  0.35496  0.75000
E12   E   0.25000  0.04008  0.37500
E13   E   0.25000  0.45992  0.87500
E14   E   0.35496  0.14504  0.25000
E15   E   0.35496  0.35496  0.00000
E16   E   0.45992  0.25000  0.12500
E17   E   0.50000  0.00000  0.05594
E18   E   0.50000  0.00000  0.19406
E19   E   0.50000  0.00000  0.30594
E20   E   0.50000  0.00000  0.44406
E21   E   0.50000  0.50000  0.05594
E22   E   0.50000  0.50000  0.19406
E23   E   0.50000  0.50000  0.80594
E24   E   0.50000  0.50000  0.94406
E25   E   0.54008  0.75000  0.12500
E26   E   0.64504  0.64504  0.00000
E27   E   0.64504  0.85496  0.25000
E28   E   0.75000  0.54008  0.87500
E29   E   0.75000  0.95992  0.37500
E30   E   0.85496  0.64504  0.75000
E31   E   0.85496  0.85496  0.50000
E32   E   0.95992  0.75000  0.62500
loop_
