data_umh_P42/nnm:2  hall_number: 417, V_con: 4
_audit_creation_date              2025-03-06
_audit_creation_method            'MOFbuilder_1.0'
_symmetry_space_group_name_H-M    'P1'
_symmetry_Int_Tables_number       1
_symmetry_cell_setting            triclinic
loop_
_symmetry_equiv_pos_as_xyz
  x,y,z
_cell_length_a                    28.0398
_cell_length_b                    28.0398
_cell_length_c                    36.1701
_cell_angle_alpha                 90.0
_cell_angle_beta                  90.0
_cell_angle_gamma                 90.0
loop_
_atom_site_label
_atom_site_type_symbol
_atom_site_fract_x
_atom_site_fract_y
_atom_site_fract_z
V1    V   0.10274  0.14943  0.63585
V2    V   0.10274  0.35057  0.86415
V3    V   0.14943  0.10274  0.36415
V4    V   0.14943  0.39726  0.13585
V5    V   0.35057  0.10274  0.13585
V6    V   0.35057  0.39726  0.36415
V7    V   0.39726  0.14943  0.86415
V8    V   0.39726  0.35057  0.63585
V9    V   0.60274  0.64943  0.36415
V10   V   0.60274  0.85057  0.13585
V11   V   0.64943  0.60274  0.63585
V12   V   0.64943  0.89726  0.86415
V13   V   0.85057  0.60274  0.86415
V14   V   0.85057  0.89726  0.63585
V15   V   0.89726  0.64943  0.13585
V16   V   0.89726  0.85057  0.36415
E1    E   0.02334  0.52334  0.13585
E2    E   0.02334  0.97666  0.36415
E3    E   0.02334  0.52334  0.13585
E4    E   0.02334  0.97666  0.36415
E5    E   0.10274  0.25000  0.75000
E6    E   0.12609  0.12609  0.50000
E7    E   0.12609  0.37391  0.00000
E8    E   0.12609  0.12609  0.50000
E9    E   0.12609  0.37391  0.00000
E10   E   0.25000  0.10274  0.25000
E11   E   0.25000  0.25000  0.13585
E12   E   0.25000  0.25000  0.36415
E13   E   0.25000  0.25000  0.63585
E14   E   0.25000  0.25000  0.86415
E15   E   0.25000  0.39726  0.25000
E16   E   0.37391  0.12609  0.00000
E17   E   0.37391  0.37391  0.50000
E18   E   0.37391  0.12609  0.00000
E19   E   0.37391  0.37391  0.50000
E20   E   0.39726  0.25000  0.75000
E21   E   0.47666  0.52334  0.36415
E22   E   0.47666  0.97666  0.13585
E23   E   0.52334  0.02334  0.86415
E24   E   0.52334  0.02334  0.86415
E25   E   0.52334  0.47666  0.63585
E26   E   0.60274  0.75000  0.25000
E27   E   0.62609  0.62609  0.50000
E28   E   0.62609  0.87391  0.00000
E29   E   0.75000  0.60274  0.75000
E30   E   0.75000  0.75000  0.13585
E31   E   0.75000  0.75000  0.36415
E32   E   0.75000  0.75000  0.63585
E33   E   0.75000  0.75000  0.86415
E34   E   0.75000  0.89726  0.75000
E35   E   0.87391  0.62609  0.00000
E36   E   0.87391  0.87391  0.50000
E37   E   0.89726  0.75000  0.25000
E38   E   0.97666  0.02334  0.63585
E39   E   0.97666  0.02334  0.63585
E40   E   0.97666  0.47666  0.86415
loop_
