data_umk_P63/mcm  hall_number: 487, V_con: 4
_audit_creation_date              2025-03-06
_audit_creation_method            'MOFbuilder_1.0'
_symmetry_space_group_name_H-M    'P1'
_symmetry_Int_Tables_number       1
_symmetry_cell_setting            triclinic
loop_
_symmetry_equiv_pos_as_xyz
  x,y,z
_cell_length_a                    44.081599999999995
_cell_length_b                    44.081599999999995
_cell_length_c                    29.039299999999997
_cell_angle_alpha                 90.0
_cell_angle_beta                  90.0
_cell_angle_gamma                 120.0
loop_
_atom_site_label
_atom_site_type_symbol
_atom_site_fract_x
_atom_site_fract_y
_atom_site_fract_z
V1    V   0.13098  0.46431  0.57782
V2    V   0.13098  0.46431  0.92218
V3    V   0.13098  0.66667  0.07782
V4    V   0.13098  0.66667  0.42218
V5    V   0.33333  0.46431  0.07782
V6    V   0.33333  0.46431  0.42218
V7    V   0.33333  0.86902  0.57782
V8    V   0.33333  0.86902  0.92218
V9    V   0.46431  0.13098  0.57782
V10   V   0.46431  0.13098  0.92218
V11   V   0.46431  0.33333  0.07782
V12   V   0.46431  0.33333  0.42218
V13   V   0.53569  0.66667  0.57782
V14   V   0.53569  0.66667  0.92218
V15   V   0.53569  0.86902  0.07782
V16   V   0.53569  0.86902  0.42218
V17   V   0.66667  0.13098  0.07782
V18   V   0.66667  0.13098  0.42218
V19   V   0.66667  0.53569  0.57782
V20   V   0.66667  0.53569  0.92218
V21   V   0.86902  0.33333  0.57782
V22   V   0.86902  0.33333  0.92218
V23   V   0.86902  0.53569  0.07782
V24   V   0.86902  0.53569  0.42218
E1    E   0.00000  0.39882  0.57782
E2    E   0.00000  0.39882  0.92218
E3    E   0.00000  0.60118  0.07782
E4    E   0.00000  0.60118  0.42218
E5    E   0.13098  0.46431  0.75000
E6    E   0.13098  0.66667  0.25000
E7    E   0.13098  0.56549  0.00000
E8    E   0.13098  0.56549  0.50000
E9    E   0.23215  0.46431  0.00000
E10   E   0.23215  0.46431  0.50000
E11   E   0.23215  0.76784  0.00000
E12   E   0.23215  0.76784  0.50000
E13   E   0.23216  0.46431  0.00000
E14   E   0.23216  0.46431  0.50000
E15   E   0.23216  0.76785  0.00000
E16   E   0.23216  0.76785  0.50000
E17   E   0.33333  0.46431  0.25000
E18   E   0.33333  0.86902  0.75000
E19   E   0.39882  0.00000  0.57782
E20   E   0.39882  0.00000  0.92218
E21   E   0.39882  0.39882  0.07782
E22   E   0.39882  0.39882  0.42218
E23   E   0.43451  0.56549  0.00000
E24   E   0.43451  0.56549  0.50000
E25   E   0.43451  0.86902  0.00000
E26   E   0.43451  0.86902  0.50000
E27   E   0.43451  0.56549  0.00000
E28   E   0.43451  0.56549  0.50000
E29   E   0.43451  0.86902  0.00000
E30   E   0.43451  0.86902  0.50000
E31   E   0.46431  0.13098  0.75000
E32   E   0.46431  0.23215  0.00000
E33   E   0.46431  0.23215  0.50000
E34   E   0.46431  0.23216  0.00000
E35   E   0.46431  0.23216  0.50000
E36   E   0.46431  0.33333  0.25000
E37   E   0.53569  0.66667  0.75000
E38   E   0.53569  0.76784  0.00000
E39   E   0.53569  0.76784  0.50000
E40   E   0.53569  0.76785  0.00000
E41   E   0.53569  0.76785  0.50000
E42   E   0.53569  0.86902  0.25000
E43   E   0.56549  0.13098  0.00000
E44   E   0.56549  0.13098  0.50000
E45   E   0.56549  0.43451  0.00000
E46   E   0.56549  0.43451  0.50000
E47   E   0.56549  0.43451  0.00000
E48   E   0.56549  0.43451  0.50000
E49   E   0.60118  0.00000  0.07782
E50   E   0.60118  0.00000  0.42218
E51   E   0.60118  0.60118  0.57782
E52   E   0.60118  0.60118  0.92218
E53   E   0.66667  0.13098  0.25000
E54   E   0.66667  0.53569  0.75000
E55   E   0.76784  0.23215  0.00000
E56   E   0.76784  0.23215  0.50000
E57   E   0.76784  0.53569  0.00000
E58   E   0.76784  0.53569  0.50000
E59   E   0.76785  0.23216  0.00000
E60   E   0.76785  0.23216  0.50000
E61   E   0.76785  0.53569  0.00000
E62   E   0.76785  0.53569  0.50000
E63   E   0.86902  0.43451  0.00000
E64   E   0.86902  0.43451  0.50000
E65   E   0.86902  0.43451  0.00000
E66   E   0.86902  0.43451  0.50000
E67   E   0.86902  0.33333  0.75000
E68   E   0.86902  0.53569  0.25000
loop_
