data_umu_I41/amd:2  hall_number: 427, V_con: 4
_audit_creation_date              2025-03-06
_audit_creation_method            'MOFbuilder_1.0'
_symmetry_space_group_name_H-M    'P1'
_symmetry_Int_Tables_number       1
_symmetry_cell_setting            triclinic
loop_
_symmetry_equiv_pos_as_xyz
  x,y,z
_cell_length_a                    57.283699999999996
_cell_length_b                    57.283699999999996
_cell_length_c                    16.3777
_cell_angle_alpha                 90.0
_cell_angle_beta                  90.0
_cell_angle_gamma                 90.0
loop_
_atom_site_label
_atom_site_type_symbol
_atom_site_fract_x
_atom_site_fract_y
_atom_site_fract_z
V1    V   0.08728  0.05010  0.75000
V2    V   0.08728  0.44990  0.75000
V3    V   0.08728  0.55010  0.25000
V4    V   0.08728  0.94990  0.25000
V5    V   0.19990  0.16272  0.00000
V6    V   0.19990  0.33728  0.00000
V7    V   0.19990  0.66272  0.00000
V8    V   0.19990  0.83728  0.00000
V9    V   0.30010  0.16272  0.50000
V10   V   0.30010  0.33728  0.50000
V11   V   0.30010  0.66272  0.50000
V12   V   0.30010  0.83728  0.50000
V13   V   0.41272  0.05010  0.75000
V14   V   0.41272  0.44990  0.75000
V15   V   0.41272  0.55010  0.25000
V16   V   0.41272  0.94990  0.25000
V17   V   0.58728  0.05010  0.75000
V18   V   0.58728  0.44990  0.75000
V19   V   0.58728  0.55010  0.25000
V20   V   0.58728  0.94990  0.25000
V21   V   0.69990  0.16272  0.50000
V22   V   0.69990  0.33728  0.50000
V23   V   0.69990  0.66272  0.50000
V24   V   0.69990  0.83728  0.50000
V25   V   0.80010  0.16272  0.00000
V26   V   0.80010  0.33728  0.00000
V27   V   0.80010  0.66272  0.00000
V28   V   0.80010  0.83728  0.00000
V29   V   0.91272  0.05010  0.75000
V30   V   0.91272  0.44990  0.75000
V31   V   0.91272  0.55010  0.25000
V32   V   0.91272  0.94990  0.25000
E1    E   0.00000  0.05010  0.75000
E2    E   0.00000  0.44990  0.75000
E3    E   0.00000  0.55010  0.25000
E4    E   0.00000  0.94990  0.25000
E5    E   0.08728  0.00000  0.00000
E6    E   0.08728  0.00000  0.50000
E7    E   0.08728  0.50000  0.00000
E8    E   0.08728  0.50000  0.50000
E9    E   0.14359  0.10641  0.87500
E10   E   0.14359  0.39359  0.87500
E11   E   0.14359  0.60641  0.12500
E12   E   0.14359  0.89359  0.12500
E13   E   0.19990  0.25000  0.00000
E14   E   0.19990  0.75000  0.00000
E15   E   0.25000  0.16272  0.25000
E16   E   0.25000  0.16272  0.75000
E17   E   0.25000  0.33728  0.25000
E18   E   0.25000  0.33728  0.75000
E19   E   0.25000  0.66272  0.25000
E20   E   0.25000  0.66272  0.75000
E21   E   0.25000  0.83728  0.25000
E22   E   0.25000  0.83728  0.75000
E23   E   0.30010  0.25000  0.50000
E24   E   0.30010  0.75000  0.50000
E25   E   0.35641  0.10641  0.62500
E26   E   0.35641  0.39359  0.62500
E27   E   0.35641  0.60641  0.37500
E28   E   0.35641  0.89359  0.37500
E29   E   0.41272  0.00000  0.00000
E30   E   0.41272  0.00000  0.50000
E31   E   0.41272  0.50000  0.00000
E32   E   0.41272  0.50000  0.50000
E33   E   0.50000  0.05010  0.75000
E34   E   0.50000  0.44990  0.75000
E35   E   0.50000  0.55010  0.25000
E36   E   0.50000  0.94990  0.25000
E37   E   0.58728  0.00000  0.00000
E38   E   0.58728  0.00000  0.50000
E39   E   0.58728  0.50000  0.00000
E40   E   0.58728  0.50000  0.50000
E41   E   0.64359  0.10641  0.62500
E42   E   0.64359  0.39359  0.62500
E43   E   0.64359  0.60641  0.37500
E44   E   0.64359  0.89359  0.37500
E45   E   0.69990  0.25000  0.50000
E46   E   0.69990  0.75000  0.50000
E47   E   0.75000  0.16272  0.25000
E48   E   0.75000  0.16272  0.75000
E49   E   0.75000  0.33728  0.25000
E50   E   0.75000  0.33728  0.75000
E51   E   0.75000  0.66272  0.25000
E52   E   0.75000  0.66272  0.75000
E53   E   0.75000  0.83728  0.25000
E54   E   0.75000  0.83728  0.75000
E55   E   0.80010  0.25000  0.00000
E56   E   0.80010  0.75000  0.00000
E57   E   0.85641  0.10641  0.87500
E58   E   0.85641  0.39359  0.87500
E59   E   0.85641  0.60641  0.12500
E60   E   0.85641  0.89359  0.12500
E61   E   0.91272  0.00000  0.00000
E62   E   0.91272  0.00000  0.50000
E63   E   0.91272  0.50000  0.00000
E64   E   0.91272  0.50000  0.50000
loop_
