data_umy_P6122  hall_number: 472, V_con: 4
_audit_creation_date              2025-03-06
_audit_creation_method            'MOFbuilder_1.0'
_symmetry_space_group_name_H-M    'P1'
_symmetry_Int_Tables_number       1
_symmetry_cell_setting            triclinic
loop_
_symmetry_equiv_pos_as_xyz
  x,y,z
_cell_length_a                    25.058799999999998
_cell_length_b                    25.058799999999998
_cell_length_c                    36.0855
_cell_angle_alpha                 90.0
_cell_angle_beta                  90.0
_cell_angle_gamma                 120.0
loop_
_atom_site_label
_atom_site_type_symbol
_atom_site_fract_x
_atom_site_fract_y
_atom_site_fract_z
V1    V   0.07435  0.34943  0.13025
V2    V   0.07435  0.72492  0.03642
V3    V   0.27508  0.34943  0.36975
V4    V   0.27508  0.92565  0.79692
V5    V   0.34943  0.07435  0.20308
V6    V   0.34943  0.27508  0.96358
V7    V   0.65057  0.72492  0.46358
V8    V   0.65057  0.92565  0.70308
V9    V   0.72492  0.07435  0.29692
V10   V   0.72492  0.65057  0.86975
V11   V   0.92565  0.27508  0.53642
V12   V   0.92565  0.65057  0.63025
E1    E   0.07435  0.53717  0.08333
E2    E   0.07435  0.53718  0.08334
E3    E   0.10036  0.31225  0.45309
E4    E   0.10036  0.78811  0.71358
E5    E   0.17471  0.34943  0.25000
E6    E   0.17471  0.82528  0.91667
E7    E   0.17472  0.34943  0.25000
E8    E   0.17472  0.82529  0.91667
E9    E   0.21189  0.31225  0.04691
E10   E   0.21189  0.89964  0.11976
E11   E   0.31225  0.10036  0.88024
E12   E   0.31225  0.21189  0.28642
E13   E   0.34943  0.17471  0.08333
E14   E   0.34943  0.17472  0.08333
E15   E   0.46282  0.53717  0.41667
E16   E   0.46282  0.92565  0.75000
E17   E   0.46283  0.53718  0.41666
E18   E   0.46283  0.92565  0.75000
E19   E   0.53717  0.07435  0.25000
E20   E   0.53717  0.46282  0.91666
E21   E   0.53718  0.07435  0.25000
E22   E   0.53718  0.46283  0.91667
E23   E   0.65057  0.82528  0.58333
E24   E   0.65057  0.82529  0.58333
E25   E   0.68775  0.78811  0.78642
E26   E   0.68775  0.89964  0.38024
E27   E   0.78811  0.10036  0.61976
E28   E   0.78811  0.68775  0.54691
E29   E   0.82528  0.17471  0.41667
E30   E   0.82528  0.65057  0.75000
E31   E   0.82529  0.17472  0.41667
E32   E   0.82529  0.65057  0.75000
E33   E   0.89964  0.21189  0.21358
E34   E   0.89964  0.68775  0.95309
E35   E   0.92565  0.46282  0.58334
E36   E   0.92565  0.46283  0.58333
loop_
