data_umz_P42/nbc:2  hall_number: 415, V_con: 4
_audit_creation_date              2025-03-06
_audit_creation_method            'MOFbuilder_1.0'
_symmetry_space_group_name_H-M    'P1'
_symmetry_Int_Tables_number       1
_symmetry_cell_setting            triclinic
loop_
_symmetry_equiv_pos_as_xyz
  x,y,z
_cell_length_a                    39.8711
_cell_length_b                    39.8711
_cell_length_c                    15.9846
_cell_angle_alpha                 90.0
_cell_angle_beta                  90.0
_cell_angle_gamma                 90.0
loop_
_atom_site_label
_atom_site_type_symbol
_atom_site_fract_x
_atom_site_fract_y
_atom_site_fract_z
V1    V   0.02561  0.63220  0.10727
V2    V   0.02561  0.86780  0.89273
V3    V   0.13220  0.52561  0.60727
V4    V   0.13220  0.97439  0.39273
V5    V   0.36780  0.52561  0.39273
V6    V   0.36780  0.97439  0.60727
V7    V   0.47439  0.63220  0.89273
V8    V   0.47439  0.86780  0.10727
V9    V   0.52561  0.13220  0.89273
V10   V   0.52561  0.36780  0.10727
V11   V   0.63220  0.02561  0.39273
V12   V   0.63220  0.47439  0.60727
V13   V   0.86780  0.02561  0.60727
V14   V   0.86780  0.47439  0.39273
V15   V   0.97439  0.13220  0.10727
V16   V   0.97439  0.36780  0.89273
E1    E   0.02561  0.75000  0.00000
E2    E   0.05330  0.05330  0.25000
E3    E   0.05330  0.44670  0.75000
E4    E   0.05330  0.05330  0.25000
E5    E   0.05330  0.44670  0.75000
E6    E   0.07890  0.57890  0.35727
E7    E   0.07890  0.92110  0.64273
E8    E   0.07890  0.57890  0.85727
E9    E   0.07890  0.92110  0.14273
E10   E   0.25000  0.52561  0.50000
E11   E   0.25000  0.97439  0.50000
E12   E   0.42110  0.57890  0.14273
E13   E   0.42110  0.57890  0.64273
E14   E   0.42110  0.92110  0.35727
E15   E   0.42110  0.92110  0.85727
E16   E   0.44670  0.05330  0.75000
E17   E   0.44670  0.05330  0.75000
E18   E   0.44670  0.44670  0.25000
E19   E   0.47439  0.75000  0.00000
E20   E   0.52561  0.25000  0.00000
E21   E   0.55330  0.55330  0.75000
E22   E   0.55330  0.94670  0.25000
E23   E   0.57890  0.07890  0.14273
E24   E   0.57890  0.07890  0.64273
E25   E   0.57890  0.42110  0.35727
E26   E   0.57890  0.42110  0.85727
E27   E   0.75000  0.02561  0.50000
E28   E   0.75000  0.47439  0.50000
E29   E   0.92110  0.07890  0.85727
E30   E   0.92110  0.07890  0.35727
E31   E   0.92110  0.42110  0.14273
E32   E   0.92110  0.42110  0.64273
E33   E   0.94670  0.55330  0.25000
E34   E   0.94670  0.94670  0.75000
E35   E   0.97439  0.25000  0.00000
loop_
