data_unf_P-31c  hall_number: 455, V_con: 4
_audit_creation_date              2025-03-06
_audit_creation_method            'MOFbuilder_1.0'
_symmetry_space_group_name_H-M    'P1'
_symmetry_Int_Tables_number       1
_symmetry_cell_setting            triclinic
loop_
_symmetry_equiv_pos_as_xyz
  x,y,z
_cell_length_a                    26.189300000000003
_cell_length_b                    26.189300000000003
_cell_length_c                    24.6286
_cell_angle_alpha                 90.0
_cell_angle_beta                  90.0
_cell_angle_gamma                 120.0
loop_
_atom_site_label
_atom_site_type_symbol
_atom_site_fract_x
_atom_site_fract_y
_atom_site_fract_z
V1    V   0.08651  0.38512  0.08118
V2    V   0.08651  0.70139  0.41882
V3    V   0.29861  0.38512  0.41882
V4    V   0.29861  0.91349  0.08118
V5    V   0.38512  0.08651  0.58118
V6    V   0.38512  0.29861  0.91882
V7    V   0.61488  0.70139  0.08118
V8    V   0.61488  0.91349  0.41882
V9    V   0.70139  0.08651  0.91882
V10   V   0.70139  0.61488  0.58118
V11   V   0.91349  0.29861  0.58118
V12   V   0.91349  0.61488  0.91882
E1    E   0.00000  0.50000  0.00000
E2    E   0.00000  0.50000  0.50000
E3    E   0.10604  0.34186  0.50000
E4    E   0.10604  0.76418  0.00000
E5    E   0.19256  0.38512  0.25000
E6    E   0.19256  0.80744  0.25000
E7    E   0.23582  0.34186  0.00000
E8    E   0.23582  0.89396  0.50000
E9    E   0.34186  0.10604  0.00000
E10   E   0.34186  0.23582  0.50000
E11   E   0.38512  0.19256  0.75000
E12   E   0.50000  0.00000  0.00000
E13   E   0.50000  0.00000  0.50000
E14   E   0.50000  0.50000  0.00000
E15   E   0.50000  0.50000  0.50000
E16   E   0.61488  0.80744  0.25000
E17   E   0.65814  0.76418  0.50000
E18   E   0.65814  0.89396  0.00000
E19   E   0.76418  0.10604  0.50000
E20   E   0.76418  0.65814  0.00000
E21   E   0.80744  0.19256  0.75000
E22   E   0.80744  0.61488  0.75000
E23   E   0.89396  0.23582  0.00000
E24   E   0.89396  0.65814  0.50000
loop_
