data_unh_P6122  hall_number: 472, V_con: 4
_audit_creation_date              2025-03-06
_audit_creation_method            'MOFbuilder_1.0'
_symmetry_space_group_name_H-M    'P1'
_symmetry_Int_Tables_number       1
_symmetry_cell_setting            triclinic
loop_
_symmetry_equiv_pos_as_xyz
  x,y,z
_cell_length_a                    30.601300000000002
_cell_length_b                    30.601300000000002
_cell_length_c                    13.5342
_cell_angle_alpha                 90.0
_cell_angle_beta                  90.0
_cell_angle_gamma                 120.0
loop_
_atom_site_label
_atom_site_type_symbol
_atom_site_fract_x
_atom_site_fract_y
_atom_site_fract_z
V1    V   0.13891  0.56945  0.08333
V2    V   0.13891  0.56946  0.08334
V3    V   0.43054  0.56945  0.41667
V4    V   0.43054  0.86109  0.75000
V5    V   0.43055  0.56946  0.41666
V6    V   0.43055  0.86109  0.75000
V7    V   0.56945  0.13891  0.25000
V8    V   0.56945  0.43054  0.91666
V9    V   0.56946  0.13891  0.25000
V10   V   0.56946  0.43055  0.91667
V11   V   0.86109  0.43054  0.58334
V12   V   0.86109  0.43055  0.58333
E1    E   0.00000  0.50000  0.33333
E2    E   0.00000  0.50000  0.33334
E3    E   0.00000  0.50000  0.83333
E4    E   0.00000  0.50000  0.83334
E5    E   0.28472  0.56945  0.25000
E6    E   0.28472  0.71527  0.91667
E7    E   0.28473  0.56945  0.25000
E8    E   0.28473  0.71528  0.91667
E9    E   0.43055  0.71527  0.58333
E10   E   0.43055  0.71528  0.58333
E11   E   0.50000  0.00000  0.00000
E12   E   0.50000  0.00000  0.50000
E13   E   0.50000  0.00000  0.50000
E14   E   0.50000  0.00000  1.00000
E15   E   0.50000  0.50000  0.16666
E16   E   0.50000  0.50000  0.16667
E17   E   0.50000  0.50000  0.66666
E18   E   0.50000  0.50000  0.66667
E19   E   0.56945  0.28472  0.08333
E20   E   0.56945  0.28473  0.08333
E21   E   0.71527  0.28472  0.41667
E22   E   0.71527  0.43055  0.75000
E23   E   0.71528  0.28473  0.41667
E24   E   0.71528  0.43055  0.75000
loop_
