data_unt_Fm-3c  hall_number: 524, V_con: 4
_audit_creation_date              2025-03-06
_audit_creation_method            'MOFbuilder_1.0'
_symmetry_space_group_name_H-M    'P1'
_symmetry_Int_Tables_number       1
_symmetry_cell_setting            triclinic
loop_
_symmetry_equiv_pos_as_xyz
  x,y,z
_cell_length_a                    70.65140000000001
_cell_length_b                    70.65140000000001
_cell_length_c                    70.65140000000001
_cell_angle_alpha                 90.0
_cell_angle_beta                  90.0
_cell_angle_gamma                 90.0
loop_
_atom_site_label
_atom_site_type_symbol
_atom_site_fract_x
_atom_site_fract_y
_atom_site_fract_z
V1    V   0.07077  0.10355  0.31687
V2    V   0.07077  0.10355  0.68313
V3    V   0.07077  0.18313  0.10355
V4    V   0.07077  0.18313  0.89645
V5    V   0.07077  0.31687  0.39645
V6    V   0.07077  0.31687  0.60355
V7    V   0.07077  0.39645  0.18313
V8    V   0.07077  0.39645  0.81687
V9    V   0.07077  0.60355  0.18313
V10   V   0.07077  0.60355  0.81687
V11   V   0.07077  0.68313  0.39645
V12   V   0.07077  0.68313  0.60355
V13   V   0.07077  0.81687  0.10355
V14   V   0.07077  0.81687  0.89645
V15   V   0.07077  0.89645  0.31687
V16   V   0.07077  0.89645  0.68313
V17   V   0.10355  0.07077  0.18313
V18   V   0.10355  0.07077  0.81687
V19   V   0.10355  0.18313  0.42923
V20   V   0.10355  0.18313  0.57077
V21   V   0.10355  0.31687  0.07077
V22   V   0.10355  0.31687  0.92923
V23   V   0.10355  0.42923  0.31687
V24   V   0.10355  0.42923  0.68313
V25   V   0.10355  0.57077  0.31687
V26   V   0.10355  0.57077  0.68313
V27   V   0.10355  0.68313  0.07077
V28   V   0.10355  0.68313  0.92923
V29   V   0.10355  0.81687  0.42923
V30   V   0.10355  0.81687  0.57077
V31   V   0.10355  0.92923  0.18313
V32   V   0.10355  0.92923  0.81687
V33   V   0.18313  0.07077  0.39645
V34   V   0.18313  0.07077  0.60355
V35   V   0.18313  0.10355  0.07077
V36   V   0.18313  0.10355  0.92923
V37   V   0.18313  0.39645  0.42923
V38   V   0.18313  0.39645  0.57077
V39   V   0.18313  0.42923  0.10355
V40   V   0.18313  0.42923  0.89645
V41   V   0.18313  0.57077  0.10355
V42   V   0.18313  0.57077  0.89645
V43   V   0.18313  0.60355  0.42923
V44   V   0.18313  0.60355  0.57077
V45   V   0.18313  0.89645  0.07077
V46   V   0.18313  0.89645  0.92923
V47   V   0.18313  0.92923  0.39645
V48   V   0.18313  0.92923  0.60355
V49   V   0.31687  0.07077  0.10355
V50   V   0.31687  0.07077  0.89645
V51   V   0.31687  0.10355  0.42923
V52   V   0.31687  0.10355  0.57077
V53   V   0.31687  0.39645  0.07077
V54   V   0.31687  0.39645  0.92923
V55   V   0.31687  0.42923  0.39645
V56   V   0.31687  0.42923  0.60355
V57   V   0.31687  0.57077  0.39645
V58   V   0.31687  0.57077  0.60355
V59   V   0.31687  0.60355  0.07077
V60   V   0.31687  0.60355  0.92923
V61   V   0.31687  0.89645  0.42923
V62   V   0.31687  0.89645  0.57077
V63   V   0.31687  0.92923  0.10355
V64   V   0.31687  0.92923  0.89645
V65   V   0.39645  0.07077  0.31687
V66   V   0.39645  0.07077  0.68313
V67   V   0.39645  0.18313  0.07077
V68   V   0.39645  0.18313  0.92923
V69   V   0.39645  0.31687  0.42923
V70   V   0.39645  0.31687  0.57077
V71   V   0.39645  0.42923  0.18313
V72   V   0.39645  0.42923  0.81687
V73   V   0.39645  0.57077  0.18313
V74   V   0.39645  0.57077  0.81687
V75   V   0.39645  0.68313  0.42923
V76   V   0.39645  0.68313  0.57077
V77   V   0.39645  0.81687  0.07077
V78   V   0.39645  0.81687  0.92923
V79   V   0.39645  0.92923  0.31687
V80   V   0.39645  0.92923  0.68313
V81   V   0.42923  0.10355  0.18313
V82   V   0.42923  0.10355  0.81687
V83   V   0.42923  0.18313  0.39645
V84   V   0.42923  0.18313  0.60355
V85   V   0.42923  0.31687  0.10355
V86   V   0.42923  0.31687  0.89645
V87   V   0.42923  0.39645  0.31687
V88   V   0.42923  0.39645  0.68313
V89   V   0.42923  0.60355  0.31687
V90   V   0.42923  0.60355  0.68313
V91   V   0.42923  0.68313  0.10355
V92   V   0.42923  0.68313  0.89645
V93   V   0.42923  0.81687  0.39645
V94   V   0.42923  0.81687  0.60355
V95   V   0.42923  0.89645  0.18313
V96   V   0.42923  0.89645  0.81687
V97   V   0.57077  0.10355  0.18313
V98   V   0.57077  0.10355  0.81687
V99   V   0.57077  0.18313  0.39645
V100  V   0.57077  0.18313  0.60355
V101  V   0.57077  0.31687  0.10355
V102  V   0.57077  0.31687  0.89645
V103  V   0.57077  0.39645  0.31687
V104  V   0.57077  0.39645  0.68313
V105  V   0.57077  0.60355  0.31687
V106  V   0.57077  0.60355  0.68313
V107  V   0.57077  0.68313  0.10355
V108  V   0.57077  0.68313  0.89645
V109  V   0.57077  0.81687  0.39645
V110  V   0.57077  0.81687  0.60355
V111  V   0.57077  0.89645  0.18313
V112  V   0.57077  0.89645  0.81687
V113  V   0.60355  0.07077  0.31687
V114  V   0.60355  0.07077  0.68313
V115  V   0.60355  0.18313  0.07077
V116  V   0.60355  0.18313  0.92923
V117  V   0.60355  0.31687  0.42923
V118  V   0.60355  0.31687  0.57077
V119  V   0.60355  0.42923  0.18313
V120  V   0.60355  0.42923  0.81687
V121  V   0.60355  0.57077  0.18313
V122  V   0.60355  0.57077  0.81687
V123  V   0.60355  0.68313  0.42923
V124  V   0.60355  0.68313  0.57077
V125  V   0.60355  0.81687  0.07077
V126  V   0.60355  0.81687  0.92923
V127  V   0.60355  0.92923  0.31687
V128  V   0.60355  0.92923  0.68313
V129  V   0.68313  0.07077  0.10355
V130  V   0.68313  0.07077  0.89645
V131  V   0.68313  0.10355  0.42923
V132  V   0.68313  0.10355  0.57077
V133  V   0.68313  0.39645  0.07077
V134  V   0.68313  0.39645  0.92923
V135  V   0.68313  0.42923  0.39645
V136  V   0.68313  0.42923  0.60355
V137  V   0.68313  0.57077  0.39645
V138  V   0.68313  0.57077  0.60355
V139  V   0.68313  0.60355  0.07077
V140  V   0.68313  0.60355  0.92923
V141  V   0.68313  0.89645  0.42923
V142  V   0.68313  0.89645  0.57077
V143  V   0.68313  0.92923  0.10355
V144  V   0.68313  0.92923  0.89645
V145  V   0.81687  0.07077  0.39645
V146  V   0.81687  0.07077  0.60355
V147  V   0.81687  0.10355  0.07077
V148  V   0.81687  0.10355  0.92923
V149  V   0.81687  0.39645  0.42923
V150  V   0.81687  0.39645  0.57077
V151  V   0.81687  0.42923  0.10355
V152  V   0.81687  0.42923  0.89645
V153  V   0.81687  0.57077  0.10355
V154  V   0.81687  0.57077  0.89645
V155  V   0.81687  0.60355  0.42923
V156  V   0.81687  0.60355  0.57077
V157  V   0.81687  0.89645  0.07077
V158  V   0.81687  0.89645  0.92923
V159  V   0.81687  0.92923  0.39645
V160  V   0.81687  0.92923  0.60355
V161  V   0.89645  0.07077  0.18313
V162  V   0.89645  0.07077  0.81687
V163  V   0.89645  0.18313  0.42923
V164  V   0.89645  0.18313  0.57077
V165  V   0.89645  0.31687  0.07077
V166  V   0.89645  0.31687  0.92923
V167  V   0.89645  0.42923  0.31687
V168  V   0.89645  0.42923  0.68313
V169  V   0.89645  0.57077  0.31687
V170  V   0.89645  0.57077  0.68313
V171  V   0.89645  0.68313  0.07077
V172  V   0.89645  0.68313  0.92923
V173  V   0.89645  0.81687  0.42923
V174  V   0.89645  0.81687  0.57077
V175  V   0.89645  0.92923  0.18313
V176  V   0.89645  0.92923  0.81687
V177  V   0.92923  0.10355  0.31687
V178  V   0.92923  0.10355  0.68313
V179  V   0.92923  0.18313  0.10355
V180  V   0.92923  0.18313  0.89645
V181  V   0.92923  0.31687  0.39645
V182  V   0.92923  0.31687  0.60355
V183  V   0.92923  0.39645  0.18313
V184  V   0.92923  0.39645  0.81687
V185  V   0.92923  0.60355  0.18313
V186  V   0.92923  0.60355  0.81687
V187  V   0.92923  0.68313  0.39645
V188  V   0.92923  0.68313  0.60355
V189  V   0.92923  0.81687  0.10355
V190  V   0.92923  0.81687  0.89645
V191  V   0.92923  0.89645  0.31687
V192  V   0.92923  0.89645  0.68313
E1    E   0.00000  0.10355  0.31687
E2    E   0.00000  0.10355  0.68313
E3    E   0.00000  0.18313  0.10355
E4    E   0.00000  0.18313  0.89645
E5    E   0.00000  0.31687  0.39645
E6    E   0.00000  0.31687  0.60355
E7    E   0.00000  0.39645  0.18313
E8    E   0.00000  0.39645  0.81687
E9    E   0.00000  0.60355  0.18313
E10   E   0.00000  0.60355  0.81687
E11   E   0.00000  0.68313  0.39645
E12   E   0.00000  0.68313  0.60355
E13   E   0.00000  0.81687  0.10355
E14   E   0.00000  0.81687  0.89645
E15   E   0.00000  0.89645  0.31687
E16   E   0.00000  0.89645  0.68313
E17   E   0.08716  0.08716  0.25000
E18   E   0.08716  0.08716  0.75000
E19   E   0.08716  0.12695  0.14334
E20   E   0.08716  0.12695  0.85666
E21   E   0.08716  0.14334  0.37305
E22   E   0.08716  0.14334  0.62695
E23   E   0.08716  0.25000  0.08716
E24   E   0.08716  0.25000  0.41284
E25   E   0.08716  0.25000  0.58716
E26   E   0.08716  0.25000  0.91284
E27   E   0.08716  0.35666  0.12695
E28   E   0.08716  0.35666  0.87305
E29   E   0.08716  0.37305  0.35666
E30   E   0.08716  0.37305  0.64334
E31   E   0.08716  0.41284  0.25000
E32   E   0.08716  0.41284  0.75000
E33   E   0.08716  0.58716  0.25000
E34   E   0.08716  0.58716  0.75000
E35   E   0.08716  0.62695  0.35666
E36   E   0.08716  0.62695  0.64334
E37   E   0.08716  0.64334  0.12695
E38   E   0.08716  0.64334  0.87305
E39   E   0.08716  0.75000  0.08716
E40   E   0.08716  0.75000  0.41284
E41   E   0.08716  0.75000  0.58716
E42   E   0.08716  0.75000  0.91284
E43   E   0.08716  0.85666  0.37305
E44   E   0.08716  0.85666  0.62695
E45   E   0.08716  0.87305  0.14334
E46   E   0.08716  0.87305  0.85666
E47   E   0.08716  0.91284  0.25000
E48   E   0.08716  0.91284  0.75000
E49   E   0.10355  0.00000  0.18313
E50   E   0.10355  0.00000  0.81687
E51   E   0.10355  0.18313  0.50000
E52   E   0.10355  0.31687  0.00000
E53   E   0.10355  0.50000  0.31687
E54   E   0.10355  0.50000  0.68313
E55   E   0.10355  0.68313  0.00000
E56   E   0.10355  0.81687  0.50000
E57   E   0.12695  0.08716  0.35666
E58   E   0.12695  0.08716  0.64334
E59   E   0.12695  0.14334  0.08716
E60   E   0.12695  0.14334  0.91284
E61   E   0.12695  0.35666  0.41284
E62   E   0.12695  0.35666  0.58716
E63   E   0.12695  0.41284  0.14334
E64   E   0.12695  0.41284  0.85666
E65   E   0.12695  0.58716  0.14334
E66   E   0.12695  0.58716  0.85666
E67   E   0.12695  0.64334  0.41284
E68   E   0.12695  0.64334  0.58716
E69   E   0.12695  0.85666  0.08716
E70   E   0.12695  0.85666  0.91284
E71   E   0.12695  0.91284  0.35666
E72   E   0.12695  0.91284  0.64334
E73   E   0.14334  0.08716  0.12695
E74   E   0.14334  0.08716  0.87305
E75   E   0.14334  0.12695  0.41284
E76   E   0.14334  0.12695  0.58716
E77   E   0.14334  0.37305  0.08716
E78   E   0.14334  0.37305  0.91284
E79   E   0.14334  0.41284  0.37305
E80   E   0.14334  0.41284  0.62695
E81   E   0.14334  0.58716  0.37305
E82   E   0.14334  0.58716  0.62695
E83   E   0.14334  0.62695  0.08716
E84   E   0.14334  0.62695  0.91284
E85   E   0.14334  0.87305  0.41284
E86   E   0.14334  0.87305  0.58716
E87   E   0.14334  0.91284  0.12695
E88   E   0.14334  0.91284  0.87305
E89   E   0.18313  0.00000  0.39645
E90   E   0.18313  0.00000  0.60355
E91   E   0.18313  0.10355  0.00000
E92   E   0.18313  0.39645  0.50000
E93   E   0.18313  0.50000  0.10355
E94   E   0.18313  0.50000  0.89645
E95   E   0.18313  0.60355  0.50000
E96   E   0.18313  0.89645  0.00000
E97   E   0.25000  0.08716  0.08716
E98   E   0.25000  0.08716  0.41284
E99   E   0.25000  0.08716  0.58716
E100  E   0.25000  0.08716  0.91284
E101  E   0.25000  0.41284  0.08716
E102  E   0.25000  0.41284  0.41284
E103  E   0.25000  0.41284  0.58716
E104  E   0.25000  0.41284  0.91284
E105  E   0.25000  0.58716  0.08716
E106  E   0.25000  0.58716  0.41284
E107  E   0.25000  0.58716  0.58716
E108  E   0.25000  0.58716  0.91284
E109  E   0.25000  0.91284  0.08716
E110  E   0.25000  0.91284  0.41284
E111  E   0.25000  0.91284  0.58716
E112  E   0.25000  0.91284  0.91284
E113  E   0.31687  0.00000  0.10355
E114  E   0.31687  0.00000  0.89645
E115  E   0.31687  0.10355  0.50000
E116  E   0.31687  0.39645  0.00000
E117  E   0.31687  0.50000  0.39645
E118  E   0.31687  0.50000  0.60355
E119  E   0.31687  0.60355  0.00000
E120  E   0.31687  0.89645  0.50000
E121  E   0.35666  0.08716  0.37305
E122  E   0.35666  0.08716  0.62695
E123  E   0.35666  0.12695  0.08716
E124  E   0.35666  0.12695  0.91284
E125  E   0.35666  0.37305  0.41284
E126  E   0.35666  0.37305  0.58716
E127  E   0.35666  0.41284  0.12695
E128  E   0.35666  0.41284  0.87305
E129  E   0.35666  0.58716  0.12695
E130  E   0.35666  0.58716  0.87305
E131  E   0.35666  0.62695  0.41284
E132  E   0.35666  0.62695  0.58716
E133  E   0.35666  0.87305  0.08716
E134  E   0.35666  0.87305  0.91284
E135  E   0.35666  0.91284  0.37305
E136  E   0.35666  0.91284  0.62695
E137  E   0.37305  0.08716  0.14334
E138  E   0.37305  0.08716  0.85666
E139  E   0.37305  0.14334  0.41284
E140  E   0.37305  0.14334  0.58716
E141  E   0.37305  0.35666  0.08716
E142  E   0.37305  0.35666  0.91284
E143  E   0.37305  0.41284  0.35666
E144  E   0.37305  0.41284  0.64334
E145  E   0.37305  0.58716  0.35666
E146  E   0.37305  0.58716  0.64334
E147  E   0.37305  0.64334  0.08716
E148  E   0.37305  0.64334  0.91284
E149  E   0.37305  0.85666  0.41284
E150  E   0.37305  0.85666  0.58716
E151  E   0.37305  0.91284  0.14334
E152  E   0.37305  0.91284  0.85666
E153  E   0.39645  0.00000  0.31687
E154  E   0.39645  0.00000  0.68313
E155  E   0.39645  0.18313  0.00000
E156  E   0.39645  0.31687  0.50000
E157  E   0.39645  0.50000  0.18313
E158  E   0.39645  0.50000  0.81687
E159  E   0.39645  0.68313  0.50000
E160  E   0.39645  0.81687  0.00000
E161  E   0.41284  0.08716  0.25000
E162  E   0.41284  0.08716  0.75000
E163  E   0.41284  0.12695  0.35666
E164  E   0.41284  0.12695  0.64334
E165  E   0.41284  0.14334  0.12695
E166  E   0.41284  0.14334  0.87305
E167  E   0.41284  0.25000  0.08716
E168  E   0.41284  0.25000  0.41284
E169  E   0.41284  0.25000  0.58716
E170  E   0.41284  0.25000  0.91284
E171  E   0.41284  0.35666  0.37305
E172  E   0.41284  0.35666  0.62695
E173  E   0.41284  0.37305  0.14334
E174  E   0.41284  0.37305  0.85666
E175  E   0.41284  0.41284  0.25000
E176  E   0.41284  0.41284  0.75000
E177  E   0.41284  0.58716  0.25000
E178  E   0.41284  0.58716  0.75000
E179  E   0.41284  0.62695  0.14334
E180  E   0.41284  0.62695  0.85666
E181  E   0.41284  0.64334  0.37305
E182  E   0.41284  0.64334  0.62695
E183  E   0.41284  0.75000  0.08716
E184  E   0.41284  0.75000  0.41284
E185  E   0.41284  0.75000  0.58716
E186  E   0.41284  0.75000  0.91284
E187  E   0.41284  0.85666  0.12695
E188  E   0.41284  0.85666  0.87305
E189  E   0.41284  0.87305  0.35666
E190  E   0.41284  0.87305  0.64334
E191  E   0.41284  0.91284  0.25000
E192  E   0.41284  0.91284  0.75000
E193  E   0.50000  0.10355  0.18313
E194  E   0.50000  0.10355  0.81687
E195  E   0.50000  0.18313  0.39645
E196  E   0.50000  0.18313  0.60355
E197  E   0.50000  0.31687  0.10355
E198  E   0.50000  0.31687  0.89645
E199  E   0.50000  0.39645  0.31687
E200  E   0.50000  0.39645  0.68313
E201  E   0.50000  0.60355  0.31687
E202  E   0.50000  0.60355  0.68313
E203  E   0.50000  0.68313  0.10355
E204  E   0.50000  0.68313  0.89645
E205  E   0.50000  0.81687  0.39645
E206  E   0.50000  0.81687  0.60355
E207  E   0.50000  0.89645  0.18313
E208  E   0.50000  0.89645  0.81687
E209  E   0.58716  0.08716  0.25000
E210  E   0.58716  0.08716  0.75000
E211  E   0.58716  0.12695  0.35666
E212  E   0.58716  0.12695  0.64334
E213  E   0.58716  0.14334  0.12695
E214  E   0.58716  0.14334  0.87305
E215  E   0.58716  0.25000  0.08716
E216  E   0.58716  0.25000  0.41284
E217  E   0.58716  0.25000  0.58716
E218  E   0.58716  0.25000  0.91284
E219  E   0.58716  0.35666  0.37305
E220  E   0.58716  0.35666  0.62695
E221  E   0.58716  0.37305  0.14334
E222  E   0.58716  0.37305  0.85666
E223  E   0.58716  0.41284  0.25000
E224  E   0.58716  0.41284  0.75000
E225  E   0.58716  0.58716  0.25000
E226  E   0.58716  0.58716  0.75000
E227  E   0.58716  0.62695  0.14334
E228  E   0.58716  0.62695  0.85666
E229  E   0.58716  0.64334  0.37305
E230  E   0.58716  0.64334  0.62695
E231  E   0.58716  0.75000  0.08716
E232  E   0.58716  0.75000  0.41284
E233  E   0.58716  0.75000  0.58716
E234  E   0.58716  0.75000  0.91284
E235  E   0.58716  0.85666  0.12695
E236  E   0.58716  0.85666  0.87305
E237  E   0.58716  0.87305  0.35666
E238  E   0.58716  0.87305  0.64334
E239  E   0.58716  0.91284  0.25000
E240  E   0.58716  0.91284  0.75000
E241  E   0.60355  0.00000  0.31687
E242  E   0.60355  0.00000  0.68313
E243  E   0.60355  0.18313  0.00000
E244  E   0.60355  0.31687  0.50000
E245  E   0.60355  0.50000  0.18313
E246  E   0.60355  0.50000  0.81687
E247  E   0.60355  0.68313  0.50000
E248  E   0.60355  0.81687  0.00000
E249  E   0.62695  0.08716  0.14334
E250  E   0.62695  0.08716  0.85666
E251  E   0.62695  0.14334  0.41284
E252  E   0.62695  0.14334  0.58716
E253  E   0.62695  0.35666  0.08716
E254  E   0.62695  0.35666  0.91284
E255  E   0.62695  0.41284  0.35666
E256  E   0.62695  0.41284  0.64334
E257  E   0.62695  0.58716  0.35666
E258  E   0.62695  0.58716  0.64334
E259  E   0.62695  0.64334  0.08716
E260  E   0.62695  0.64334  0.91284
E261  E   0.62695  0.85666  0.41284
E262  E   0.62695  0.85666  0.58716
E263  E   0.62695  0.91284  0.14334
E264  E   0.62695  0.91284  0.85666
E265  E   0.64334  0.08716  0.37305
E266  E   0.64334  0.08716  0.62695
E267  E   0.64334  0.12695  0.08716
E268  E   0.64334  0.12695  0.91284
E269  E   0.64334  0.37305  0.41284
E270  E   0.64334  0.37305  0.58716
E271  E   0.64334  0.41284  0.12695
E272  E   0.64334  0.41284  0.87305
E273  E   0.64334  0.58716  0.12695
E274  E   0.64334  0.58716  0.87305
E275  E   0.64334  0.62695  0.41284
E276  E   0.64334  0.62695  0.58716
E277  E   0.64334  0.87305  0.08716
E278  E   0.64334  0.87305  0.91284
E279  E   0.64334  0.91284  0.37305
E280  E   0.64334  0.91284  0.62695
E281  E   0.68313  0.00000  0.10355
E282  E   0.68313  0.00000  0.89645
E283  E   0.68313  0.10355  0.50000
E284  E   0.68313  0.39645  0.00000
E285  E   0.68313  0.50000  0.39645
E286  E   0.68313  0.50000  0.60355
E287  E   0.68313  0.60355  0.00000
E288  E   0.68313  0.89645  0.50000
E289  E   0.75000  0.08716  0.08716
E290  E   0.75000  0.08716  0.41284
E291  E   0.75000  0.08716  0.58716
E292  E   0.75000  0.08716  0.91284
E293  E   0.75000  0.41284  0.08716
E294  E   0.75000  0.41284  0.41284
E295  E   0.75000  0.41284  0.58716
E296  E   0.75000  0.41284  0.91284
E297  E   0.75000  0.58716  0.08716
E298  E   0.75000  0.58716  0.41284
E299  E   0.75000  0.58716  0.58716
E300  E   0.75000  0.58716  0.91284
E301  E   0.75000  0.91284  0.08716
E302  E   0.75000  0.91284  0.41284
E303  E   0.75000  0.91284  0.58716
E304  E   0.75000  0.91284  0.91284
E305  E   0.81687  0.00000  0.39645
E306  E   0.81687  0.00000  0.60355
E307  E   0.81687  0.10355  0.00000
E308  E   0.81687  0.39645  0.50000
E309  E   0.81687  0.50000  0.10355
E310  E   0.81687  0.50000  0.89645
E311  E   0.81687  0.60355  0.50000
E312  E   0.81687  0.89645  0.00000
E313  E   0.85666  0.08716  0.12695
E314  E   0.85666  0.08716  0.87305
E315  E   0.85666  0.12695  0.41284
E316  E   0.85666  0.12695  0.58716
E317  E   0.85666  0.37305  0.08716
E318  E   0.85666  0.37305  0.91284
E319  E   0.85666  0.41284  0.37305
E320  E   0.85666  0.41284  0.62695
E321  E   0.85666  0.58716  0.37305
E322  E   0.85666  0.58716  0.62695
E323  E   0.85666  0.62695  0.08716
E324  E   0.85666  0.62695  0.91284
E325  E   0.85666  0.87305  0.41284
E326  E   0.85666  0.87305  0.58716
E327  E   0.85666  0.91284  0.12695
E328  E   0.85666  0.91284  0.87305
E329  E   0.87305  0.08716  0.35666
E330  E   0.87305  0.08716  0.64334
E331  E   0.87305  0.14334  0.08716
E332  E   0.87305  0.14334  0.91284
E333  E   0.87305  0.35666  0.41284
E334  E   0.87305  0.35666  0.58716
E335  E   0.87305  0.41284  0.14334
E336  E   0.87305  0.41284  0.85666
E337  E   0.87305  0.58716  0.14334
E338  E   0.87305  0.58716  0.85666
E339  E   0.87305  0.64334  0.41284
E340  E   0.87305  0.64334  0.58716
E341  E   0.87305  0.85666  0.08716
E342  E   0.87305  0.85666  0.91284
E343  E   0.87305  0.91284  0.35666
E344  E   0.87305  0.91284  0.64334
E345  E   0.89645  0.00000  0.18313
E346  E   0.89645  0.00000  0.81687
E347  E   0.89645  0.18313  0.50000
E348  E   0.89645  0.31687  0.00000
E349  E   0.89645  0.50000  0.31687
E350  E   0.89645  0.50000  0.68313
E351  E   0.89645  0.68313  0.00000
E352  E   0.89645  0.81687  0.50000
E353  E   0.91284  0.08716  0.25000
E354  E   0.91284  0.08716  0.75000
E355  E   0.91284  0.12695  0.14334
E356  E   0.91284  0.12695  0.85666
E357  E   0.91284  0.14334  0.37305
E358  E   0.91284  0.14334  0.62695
E359  E   0.91284  0.25000  0.08716
E360  E   0.91284  0.25000  0.41284
E361  E   0.91284  0.25000  0.58716
E362  E   0.91284  0.25000  0.91284
E363  E   0.91284  0.35666  0.12695
E364  E   0.91284  0.35666  0.87305
E365  E   0.91284  0.37305  0.35666
E366  E   0.91284  0.37305  0.64334
E367  E   0.91284  0.41284  0.25000
E368  E   0.91284  0.41284  0.75000
E369  E   0.91284  0.58716  0.25000
E370  E   0.91284  0.58716  0.75000
E371  E   0.91284  0.62695  0.35666
E372  E   0.91284  0.62695  0.64334
E373  E   0.91284  0.64334  0.12695
E374  E   0.91284  0.64334  0.87305
E375  E   0.91284  0.75000  0.08716
E376  E   0.91284  0.75000  0.41284
E377  E   0.91284  0.75000  0.58716
E378  E   0.91284  0.75000  0.91284
E379  E   0.91284  0.85666  0.37305
E380  E   0.91284  0.85666  0.62695
E381  E   0.91284  0.87305  0.14334
E382  E   0.91284  0.87305  0.85666
E383  E   0.91284  0.91284  0.25000
E384  E   0.91284  0.91284  0.75000
loop_
