data_uoe_I41/acd:2  hall_number: 429, V_con: 4
_audit_creation_date              2025-03-06
_audit_creation_method            'MOFbuilder_1.0'
_symmetry_space_group_name_H-M    'P1'
_symmetry_Int_Tables_number       1
_symmetry_cell_setting            triclinic
loop_
_symmetry_equiv_pos_as_xyz
  x,y,z
_cell_length_a                    51.9229
_cell_length_b                    51.9229
_cell_length_c                    18.037300000000002
_cell_angle_alpha                 90.0
_cell_angle_beta                  90.0
_cell_angle_gamma                 90.0
loop_
_atom_site_label
_atom_site_type_symbol
_atom_site_fract_x
_atom_site_fract_y
_atom_site_fract_z
V1    V   0.08685  0.04160  0.50000
V2    V   0.08685  0.45840  0.00000
V3    V   0.08685  0.54160  0.50000
V4    V   0.08685  0.95840  0.00000
V5    V   0.20840  0.16315  0.75000
V6    V   0.20840  0.33685  0.25000
V7    V   0.20840  0.66315  0.25000
V8    V   0.20840  0.83685  0.75000
V9    V   0.29160  0.16315  0.25000
V10   V   0.29160  0.33685  0.75000
V11   V   0.29160  0.66315  0.75000
V12   V   0.29160  0.83685  0.25000
V13   V   0.41315  0.04160  0.50000
V14   V   0.41315  0.45840  0.00000
V15   V   0.41315  0.54160  0.50000
V16   V   0.41315  0.95840  0.00000
V17   V   0.58685  0.04160  0.00000
V18   V   0.58685  0.45840  0.50000
V19   V   0.58685  0.54160  0.00000
V20   V   0.58685  0.95840  0.50000
V21   V   0.70840  0.16315  0.75000
V22   V   0.70840  0.33685  0.25000
V23   V   0.70840  0.66315  0.25000
V24   V   0.70840  0.83685  0.75000
V25   V   0.79160  0.16315  0.25000
V26   V   0.79160  0.33685  0.75000
V27   V   0.79160  0.66315  0.75000
V28   V   0.79160  0.83685  0.25000
V29   V   0.91315  0.04160  0.00000
V30   V   0.91315  0.45840  0.50000
V31   V   0.91315  0.54160  0.00000
V32   V   0.91315  0.95840  0.50000
E1    E   0.00000  0.00000  0.00000
E2    E   0.00000  0.00000  0.50000
E3    E   0.00000  0.50000  0.00000
E4    E   0.00000  0.50000  0.50000
E5    E   0.08685  0.00000  0.25000
E6    E   0.08685  0.00000  0.75000
E7    E   0.08685  0.50000  0.25000
E8    E   0.08685  0.50000  0.75000
E9    E   0.14762  0.10238  0.62500
E10   E   0.14762  0.39762  0.12500
E11   E   0.14762  0.60238  0.37500
E12   E   0.14762  0.89762  0.87500
E13   E   0.14762  0.10238  0.62500
E14   E   0.14762  0.39762  0.12500
E15   E   0.14762  0.60238  0.37500
E16   E   0.14762  0.89762  0.87500
E17   E   0.25000  0.16315  0.00000
E18   E   0.25000  0.16315  0.50000
E19   E   0.25000  0.25000  0.25000
E20   E   0.25000  0.25000  0.75000
E21   E   0.25000  0.33685  0.00000
E22   E   0.25000  0.33685  0.50000
E23   E   0.25000  0.66315  0.00000
E24   E   0.25000  0.66315  0.50000
E25   E   0.25000  0.75000  0.25000
E26   E   0.25000  0.75000  0.75000
E27   E   0.25000  0.83685  0.00000
E28   E   0.25000  0.83685  0.50000
E29   E   0.35238  0.10238  0.37500
E30   E   0.35238  0.10238  0.37500
E31   E   0.35238  0.39762  0.87500
E32   E   0.35238  0.60238  0.62500
E33   E   0.35238  0.89762  0.12500
E34   E   0.41315  0.00000  0.25000
E35   E   0.41315  0.00000  0.75000
E36   E   0.41315  0.50000  0.25000
E37   E   0.41315  0.50000  0.75000
E38   E   0.50000  0.00000  0.00000
E39   E   0.50000  0.00000  0.50000
E40   E   0.50000  0.50000  0.00000
E41   E   0.50000  0.50000  0.50000
E42   E   0.58685  0.00000  0.25000
E43   E   0.58685  0.00000  0.75000
E44   E   0.58685  0.50000  0.25000
E45   E   0.58685  0.50000  0.75000
E46   E   0.64762  0.10238  0.87500
E47   E   0.64762  0.10238  0.87500
E48   E   0.64762  0.39762  0.37500
E49   E   0.64762  0.60238  0.12500
E50   E   0.64762  0.89762  0.62500
E51   E   0.75000  0.16315  0.00000
E52   E   0.75000  0.16315  0.50000
E53   E   0.75000  0.25000  0.25000
E54   E   0.75000  0.25000  0.75000
E55   E   0.75000  0.33685  0.00000
E56   E   0.75000  0.33685  0.50000
E57   E   0.75000  0.66315  0.00000
E58   E   0.75000  0.66315  0.50000
E59   E   0.75000  0.75000  0.25000
E60   E   0.75000  0.75000  0.75000
E61   E   0.75000  0.83685  0.00000
E62   E   0.75000  0.83685  0.50000
E63   E   0.85238  0.10238  0.12500
E64   E   0.85238  0.10238  0.12500
E65   E   0.85238  0.39762  0.62500
E66   E   0.85238  0.60238  0.87500
E67   E   0.85238  0.89762  0.37500
E68   E   0.91315  0.00000  0.25000
E69   E   0.91315  0.00000  0.75000
E70   E   0.91315  0.50000  0.25000
E71   E   0.91315  0.50000  0.75000
loop_
