data_uog_P6222  hall_number: 474, V_con: 4
_audit_creation_date              2025-03-06
_audit_creation_method            'MOFbuilder_1.0'
_symmetry_space_group_name_H-M    'P1'
_symmetry_Int_Tables_number       1
_symmetry_cell_setting            triclinic
loop_
_symmetry_equiv_pos_as_xyz
  x,y,z
_cell_length_a                    19.6925
_cell_length_b                    19.6925
_cell_length_c                    28.2015
_cell_angle_alpha                 90.0
_cell_angle_beta                  90.0
_cell_angle_gamma                 120.0
loop_
_atom_site_label
_atom_site_type_symbol
_atom_site_fract_x
_atom_site_fract_y
_atom_site_fract_z
V1    V   0.27560  0.55121  0.50000
V2    V   0.27560  0.72439  0.83333
V3    V   0.27561  0.55121  0.50000
V4    V   0.27561  0.72440  0.83334
V5    V   0.44879  0.72439  0.16667
V6    V   0.44879  0.72440  0.16666
V7    V   0.55121  0.27560  0.16666
V8    V   0.55121  0.27561  0.16667
V9    V   0.72439  0.27560  0.83334
V10   V   0.72439  0.44879  0.50000
V11   V   0.72440  0.27561  0.83333
V12   V   0.72440  0.44879  0.50000
E1    E   0.00000  0.50000  0.50000
E2    E   0.00000  0.50000  0.83334
E3    E   0.27561  0.63780  0.66667
E4    E   0.27561  0.63781  0.66667
E5    E   0.36219  0.63780  0.33333
E6    E   0.36219  0.72439  0.00000
E7    E   0.36220  0.63781  0.33333
E8    E   0.36220  0.72439  0.00000
E9    E   0.50000  0.00000  0.16667
E10   E   0.50000  0.00000  0.83333
E11   E   0.50000  0.50000  0.16666
E12   E   0.50000  0.50000  0.50000
E13   E   0.63780  0.27561  0.00000
E14   E   0.63780  0.36219  0.33333
E15   E   0.63781  0.27561  0.00000
E16   E   0.63781  0.36220  0.33333
E17   E   0.72439  0.36219  0.66667
E18   E   0.72439  0.36220  0.66667
loop_
