data_uon_P6222  hall_number: 474, V_con: 4
_audit_creation_date              2025-03-06
_audit_creation_method            'MOFbuilder_1.0'
_symmetry_space_group_name_H-M    'P1'
_symmetry_Int_Tables_number       1
_symmetry_cell_setting            triclinic
loop_
_symmetry_equiv_pos_as_xyz
  x,y,z
_cell_length_a                    22.2213
_cell_length_b                    22.2213
_cell_length_c                    17.453
_cell_angle_alpha                 90.0
_cell_angle_beta                  90.0
_cell_angle_gamma                 120.0
loop_
_atom_site_label
_atom_site_type_symbol
_atom_site_fract_x
_atom_site_fract_y
_atom_site_fract_z
V1    V   0.21132  0.42265  0.00000
V2    V   0.21132  0.78867  0.33333
V3    V   0.21133  0.42265  0.00000
V4    V   0.21133  0.78868  0.33333
V5    V   0.42265  0.21132  0.66667
V6    V   0.42265  0.21133  0.66667
V7    V   0.57735  0.78867  0.66667
V8    V   0.57735  0.78868  0.66667
V9    V   0.78867  0.21132  0.33333
V10   V   0.78867  0.57735  0.00000
V11   V   0.78868  0.21133  0.33333
V12   V   0.78868  0.57735  0.00000
E1    E   0.00000  0.31699  0.16666
E2    E   0.00000  0.31699  0.16667
E3    E   0.00000  0.68301  0.16666
E4    E   0.00000  0.68301  0.16667
E5    E   0.21133  0.60566  0.16667
E6    E   0.21133  0.60567  0.16666
E7    E   0.31699  0.00000  0.50000
E8    E   0.31699  0.00000  0.50000
E9    E   0.31699  0.31699  0.83333
E10   E   0.31699  0.31699  0.83334
E11   E   0.39433  0.60566  0.83333
E12   E   0.39433  0.78867  0.50000
E13   E   0.39434  0.60567  0.83334
E14   E   0.39434  0.78867  0.50000
E15   E   0.60566  0.21133  0.50000
E16   E   0.60566  0.39433  0.83334
E17   E   0.60567  0.21133  0.50000
E18   E   0.60567  0.39434  0.83333
E19   E   0.68301  0.00000  0.50000
E20   E   0.68301  0.00000  0.50000
E21   E   0.68301  0.68301  0.83333
E22   E   0.68301  0.68301  0.83334
E23   E   0.78867  0.39433  0.16666
E24   E   0.78867  0.39434  0.16667
loop_
