data_uos_I41/amd:2  hall_number: 427, V_con: 4
_audit_creation_date              2025-03-06
_audit_creation_method            'MOFbuilder_1.0'
_symmetry_space_group_name_H-M    'P1'
_symmetry_Int_Tables_number       1
_symmetry_cell_setting            triclinic
loop_
_symmetry_equiv_pos_as_xyz
  x,y,z
_cell_length_a                    56.8644
_cell_length_b                    56.8644
_cell_length_c                    15.209600000000002
_cell_angle_alpha                 90.0
_cell_angle_beta                  90.0
_cell_angle_gamma                 90.0
loop_
_atom_site_label
_atom_site_type_symbol
_atom_site_fract_x
_atom_site_fract_y
_atom_site_fract_z
V1    V   0.08793  0.08132  0.62500
V2    V   0.08793  0.41868  0.62500
V3    V   0.08793  0.58132  0.37500
V4    V   0.08793  0.91868  0.37500
V5    V   0.16868  0.16207  0.12500
V6    V   0.16868  0.33793  0.12500
V7    V   0.16868  0.66207  0.87500
V8    V   0.16868  0.83793  0.87500
V9    V   0.33132  0.16207  0.37500
V10   V   0.33132  0.33793  0.37500
V11   V   0.33132  0.66207  0.62500
V12   V   0.33132  0.83793  0.62500
V13   V   0.41207  0.08132  0.87500
V14   V   0.41207  0.41868  0.87500
V15   V   0.41207  0.58132  0.12500
V16   V   0.41207  0.91868  0.12500
V17   V   0.58793  0.08132  0.87500
V18   V   0.58793  0.41868  0.87500
V19   V   0.58793  0.58132  0.12500
V20   V   0.58793  0.91868  0.12500
V21   V   0.66868  0.16207  0.37500
V22   V   0.66868  0.33793  0.37500
V23   V   0.66868  0.66207  0.62500
V24   V   0.66868  0.83793  0.62500
V25   V   0.83132  0.16207  0.12500
V26   V   0.83132  0.33793  0.12500
V27   V   0.83132  0.66207  0.87500
V28   V   0.83132  0.83793  0.87500
V29   V   0.91207  0.08132  0.62500
V30   V   0.91207  0.41868  0.62500
V31   V   0.91207  0.58132  0.37500
V32   V   0.91207  0.91868  0.37500
E1    E   0.00000  0.08132  0.62500
E2    E   0.00000  0.41868  0.62500
E3    E   0.00000  0.58132  0.37500
E4    E   0.00000  0.91868  0.37500
E5    E   0.08793  0.00000  0.50000
E6    E   0.08793  0.50000  0.50000
E7    E   0.12830  0.12170  0.37500
E8    E   0.12830  0.12170  0.87500
E9    E   0.12830  0.37830  0.37500
E10   E   0.12830  0.37830  0.87500
E11   E   0.12830  0.62170  0.12500
E12   E   0.12830  0.62170  0.62500
E13   E   0.12830  0.87830  0.12500
E14   E   0.12830  0.87830  0.62500
E15   E   0.16868  0.25000  0.12500
E16   E   0.16868  0.75000  0.87500
E17   E   0.25000  0.16207  0.25000
E18   E   0.25000  0.33793  0.25000
E19   E   0.25000  0.66207  0.75000
E20   E   0.25000  0.83793  0.75000
E21   E   0.33132  0.25000  0.37500
E22   E   0.33132  0.75000  0.62500
E23   E   0.37170  0.12170  0.12500
E24   E   0.37170  0.12170  0.62500
E25   E   0.37170  0.37830  0.12500
E26   E   0.37170  0.37830  0.62500
E27   E   0.37170  0.62170  0.37500
E28   E   0.37170  0.62170  0.87500
E29   E   0.37170  0.87830  0.37500
E30   E   0.37170  0.87830  0.87500
E31   E   0.41207  0.00000  0.00000
E32   E   0.41207  0.50000  0.00000
E33   E   0.50000  0.08132  0.87500
E34   E   0.50000  0.41868  0.87500
E35   E   0.50000  0.58132  0.12500
E36   E   0.50000  0.91868  0.12500
E37   E   0.58793  0.00000  0.00000
E38   E   0.58793  0.50000  0.00000
E39   E   0.62830  0.12170  0.12500
E40   E   0.62830  0.12170  0.62500
E41   E   0.62830  0.37830  0.12500
E42   E   0.62830  0.37830  0.62500
E43   E   0.62830  0.62170  0.37500
E44   E   0.62830  0.62170  0.87500
E45   E   0.62830  0.87830  0.37500
E46   E   0.62830  0.87830  0.87500
E47   E   0.66868  0.25000  0.37500
E48   E   0.66868  0.75000  0.62500
E49   E   0.75000  0.16207  0.25000
E50   E   0.75000  0.33793  0.25000
E51   E   0.75000  0.66207  0.75000
E52   E   0.75000  0.83793  0.75000
E53   E   0.83132  0.25000  0.12500
E54   E   0.83132  0.75000  0.87500
E55   E   0.87170  0.12170  0.37500
E56   E   0.87170  0.12170  0.87500
E57   E   0.87170  0.37830  0.37500
E58   E   0.87170  0.37830  0.87500
E59   E   0.87170  0.62170  0.12500
E60   E   0.87170  0.62170  0.62500
E61   E   0.87170  0.87830  0.12500
E62   E   0.87170  0.87830  0.62500
E63   E   0.91207  0.00000  0.50000
E64   E   0.91207  0.50000  0.50000
loop_
