data_uot_I-42m  hall_number: 398, V_con: 4
_audit_creation_date              2025-03-06
_audit_creation_method            'MOFbuilder_1.0'
_symmetry_space_group_name_H-M    'P1'
_symmetry_Int_Tables_number       1
_symmetry_cell_setting            triclinic
loop_
_symmetry_equiv_pos_as_xyz
  x,y,z
_cell_length_a                    29.607999999999997
_cell_length_b                    29.607999999999997
_cell_length_c                    28.7898
_cell_angle_alpha                 90.0
_cell_angle_beta                  90.0
_cell_angle_gamma                 90.0
loop_
_atom_site_label
_atom_site_type_symbol
_atom_site_fract_x
_atom_site_fract_y
_atom_site_fract_z
V1    V   0.07980  0.31862  0.84694
V2    V   0.07980  0.68138  0.15306
V3    V   0.18138  0.42020  0.34694
V4    V   0.18138  0.57980  0.65306
V5    V   0.31862  0.07980  0.84694
V6    V   0.31862  0.92020  0.15306
V7    V   0.42020  0.18138  0.34694
V8    V   0.42020  0.81862  0.65306
V9    V   0.57980  0.18138  0.65306
V10   V   0.57980  0.81862  0.34694
V11   V   0.68138  0.07980  0.15306
V12   V   0.68138  0.92020  0.84694
V13   V   0.81862  0.42020  0.65306
V14   V   0.81862  0.57980  0.34694
V15   V   0.92020  0.31862  0.15306
V16   V   0.92020  0.68138  0.84694
E1    E   0.00000  0.31862  0.00000
E2    E   0.00000  0.68138  0.00000
E3    E   0.05079  0.36941  0.25000
E4    E   0.05079  0.63059  0.75000
E5    E   0.13059  0.44921  0.75000
E6    E   0.13059  0.55079  0.25000
E7    E   0.18138  0.50000  0.50000
E8    E   0.19921  0.19921  0.84694
E9    E   0.19921  0.80079  0.15306
E10   E   0.30079  0.30079  0.34694
E11   E   0.30079  0.69921  0.65306
E12   E   0.31862  0.00000  0.00000
E13   E   0.36941  0.05079  0.25000
E14   E   0.36941  0.94921  0.75000
E15   E   0.44921  0.13059  0.75000
E16   E   0.44921  0.86941  0.25000
E17   E   0.50000  0.18138  0.50000
E18   E   0.50000  0.81862  0.50000
E19   E   0.55079  0.13059  0.25000
E20   E   0.55079  0.86941  0.75000
E21   E   0.63059  0.05079  0.75000
E22   E   0.63059  0.94921  0.25000
E23   E   0.68138  0.00000  0.00000
E24   E   0.69921  0.30079  0.65306
E25   E   0.69921  0.69921  0.34694
E26   E   0.80079  0.19921  0.15306
E27   E   0.80079  0.80079  0.84694
E28   E   0.81862  0.50000  0.50000
E29   E   0.86941  0.44921  0.25000
E30   E   0.86941  0.55079  0.75000
E31   E   0.94921  0.36941  0.75000
E32   E   0.94921  0.63059  0.25000
loop_
