data_uoy_I4122  hall_number: 375, V_con: 4
_audit_creation_date              2025-03-06
_audit_creation_method            'MOFbuilder_1.0'
_symmetry_space_group_name_H-M    'P1'
_symmetry_Int_Tables_number       1
_symmetry_cell_setting            triclinic
loop_
_symmetry_equiv_pos_as_xyz
  x,y,z
_cell_length_a                    18.680300000000003
_cell_length_b                    18.680300000000003
_cell_length_c                    69.1978
_cell_angle_alpha                 90.0
_cell_angle_beta                  90.0
_cell_angle_gamma                 90.0
loop_
_atom_site_label
_atom_site_type_symbol
_atom_site_fract_x
_atom_site_fract_y
_atom_site_fract_z
V1    V   0.09561  0.25000  0.43403
V2    V   0.09561  0.25000  0.81597
V3    V   0.25000  0.09561  0.18403
V4    V   0.25000  0.09561  0.56597
V5    V   0.25000  0.40439  0.06597
V6    V   0.25000  0.40439  0.68403
V7    V   0.40439  0.25000  0.31597
V8    V   0.40439  0.25000  0.93403
V9    V   0.59561  0.75000  0.31597
V10   V   0.59561  0.75000  0.93403
V11   V   0.75000  0.59561  0.06597
V12   V   0.75000  0.59561  0.68403
V13   V   0.75000  0.90439  0.18403
V14   V   0.75000  0.90439  0.56597
V15   V   0.90439  0.75000  0.43403
V16   V   0.90439  0.75000  0.81597
E1    E   0.00000  0.00000  0.18403
E2    E   0.00000  0.00000  0.43403
E3    E   0.00000  0.00000  0.56597
E4    E   0.00000  0.00000  0.81597
E5    E   0.00000  0.50000  0.06597
E6    E   0.00000  0.50000  0.43403
E7    E   0.00000  0.50000  0.68403
E8    E   0.00000  0.50000  0.81597
E9    E   0.17281  0.17281  0.50000
E10   E   0.17281  0.32719  0.75000
E11   E   0.17281  0.17281  0.50000
E12   E   0.17281  0.32719  0.75000
E13   E   0.25000  0.25000  0.12500
E14   E   0.25000  0.25000  0.37500
E15   E   0.25000  0.25000  0.62500
E16   E   0.25000  0.25000  0.87500
E17   E   0.32719  0.17281  0.25000
E18   E   0.32719  0.17281  0.25000
E19   E   0.32719  0.32719  0.00000
E20   E   0.50000  0.00000  0.18403
E21   E   0.50000  0.00000  0.31597
E22   E   0.50000  0.00000  0.56597
E23   E   0.50000  0.00000  0.93403
E24   E   0.50000  0.50000  0.06597
E25   E   0.50000  0.50000  0.31597
E26   E   0.50000  0.50000  0.68403
E27   E   0.50000  0.50000  0.93403
E28   E   0.67281  0.67281  0.00000
E29   E   0.67281  0.82719  0.25000
E30   E   0.75000  0.75000  0.12500
E31   E   0.75000  0.75000  0.37500
E32   E   0.75000  0.75000  0.62500
E33   E   0.75000  0.75000  0.87500
E34   E   0.82719  0.67281  0.75000
E35   E   0.82719  0.82719  0.50000
loop_
