data_uoz_I41/amd:2  hall_number: 427, V_con: 4
_audit_creation_date              2025-03-06
_audit_creation_method            'MOFbuilder_1.0'
_symmetry_space_group_name_H-M    'P1'
_symmetry_Int_Tables_number       1
_symmetry_cell_setting            triclinic
loop_
_symmetry_equiv_pos_as_xyz
  x,y,z
_cell_length_a                    39.9003
_cell_length_b                    39.9003
_cell_length_c                    14.6751
_cell_angle_alpha                 90.0
_cell_angle_beta                  90.0
_cell_angle_gamma                 90.0
loop_
_atom_site_label
_atom_site_type_symbol
_atom_site_fract_x
_atom_site_fract_y
_atom_site_fract_z
V1    V   0.00000  0.08514  0.75000
V2    V   0.00000  0.41486  0.75000
V3    V   0.00000  0.58514  0.25000
V4    V   0.00000  0.91486  0.25000
V5    V   0.16486  0.25000  0.00000
V6    V   0.16486  0.75000  0.00000
V7    V   0.33514  0.25000  0.50000
V8    V   0.33514  0.75000  0.50000
V9    V   0.50000  0.08514  0.75000
V10   V   0.50000  0.41486  0.75000
V11   V   0.50000  0.58514  0.25000
V12   V   0.50000  0.91486  0.25000
V13   V   0.66486  0.25000  0.50000
V14   V   0.66486  0.75000  0.50000
V15   V   0.83514  0.25000  0.00000
V16   V   0.83514  0.75000  0.00000
E1    E   0.00000  0.00000  0.00000
E2    E   0.00000  0.00000  0.50000
E3    E   0.00000  0.50000  0.00000
E4    E   0.00000  0.50000  0.50000
E5    E   0.08243  0.16757  0.87500
E6    E   0.08243  0.33243  0.87500
E7    E   0.08243  0.66757  0.12500
E8    E   0.08243  0.83243  0.12500
E9    E   0.25000  0.25000  0.25000
E10   E   0.25000  0.25000  0.75000
E11   E   0.25000  0.75000  0.25000
E12   E   0.25000  0.75000  0.75000
E13   E   0.41757  0.16757  0.62500
E14   E   0.41757  0.33243  0.62500
E15   E   0.41757  0.66757  0.37500
E16   E   0.41757  0.83243  0.37500
E17   E   0.50000  0.00000  0.00000
E18   E   0.50000  0.00000  0.50000
E19   E   0.50000  0.50000  0.00000
E20   E   0.50000  0.50000  0.50000
E21   E   0.58243  0.16757  0.62500
E22   E   0.58243  0.33243  0.62500
E23   E   0.58243  0.66757  0.37500
E24   E   0.58243  0.83243  0.37500
E25   E   0.75000  0.25000  0.25000
E26   E   0.75000  0.25000  0.75000
E27   E   0.75000  0.75000  0.25000
E28   E   0.75000  0.75000  0.75000
E29   E   0.91757  0.16757  0.87500
E30   E   0.91757  0.33243  0.87500
E31   E   0.91757  0.66757  0.12500
E32   E   0.91757  0.83243  0.12500
loop_
