data_upc_P4/nnc:2  hall_number: 405, V_con: 4
_audit_creation_date              2025-03-06
_audit_creation_method            'MOFbuilder_1.0'
_symmetry_space_group_name_H-M    'P1'
_symmetry_Int_Tables_number       1
_symmetry_cell_setting            triclinic
loop_
_symmetry_equiv_pos_as_xyz
  x,y,z
_cell_length_a                    23.843200000000003
_cell_length_b                    23.843200000000003
_cell_length_c                    29.0781
_cell_angle_alpha                 90.0
_cell_angle_beta                  90.0
_cell_angle_gamma                 90.0
loop_
_atom_site_label
_atom_site_type_symbol
_atom_site_fract_x
_atom_site_fract_y
_atom_site_fract_z
V1    V   0.09749  0.60606  0.12495
V2    V   0.09749  0.89394  0.37505
V3    V   0.10606  0.59749  0.62495
V4    V   0.10606  0.90251  0.87505
V5    V   0.39394  0.59749  0.87505
V6    V   0.39394  0.90251  0.62495
V7    V   0.40251  0.60606  0.37505
V8    V   0.40251  0.89394  0.12495
V9    V   0.59749  0.10606  0.87505
V10   V   0.59749  0.39394  0.62495
V11   V   0.60606  0.09749  0.37505
V12   V   0.60606  0.40251  0.12495
V13   V   0.89394  0.09749  0.12495
V14   V   0.89394  0.40251  0.37505
V15   V   0.90251  0.10606  0.62495
V16   V   0.90251  0.39394  0.87505
E1    E   0.00000  0.00000  0.00000
E2    E   0.00000  0.00000  0.50000
E3    E   0.00000  0.50000  0.00000
E4    E   0.00000  0.50000  0.50000
E5    E   0.00429  0.00429  0.75000
E6    E   0.00429  0.49571  0.75000
E7    E   0.00429  0.00429  0.75000
E8    E   0.00429  0.49571  0.75000
E9    E   0.09749  0.75000  0.25000
E10   E   0.25000  0.59749  0.75000
E11   E   0.25000  0.75000  0.12495
E12   E   0.25000  0.75000  0.37505
E13   E   0.25000  0.75000  0.62495
E14   E   0.25000  0.75000  0.87505
E15   E   0.25000  0.90251  0.75000
E16   E   0.40251  0.75000  0.25000
E17   E   0.49571  0.00429  0.75000
E18   E   0.49571  0.00429  0.75000
E19   E   0.49571  0.49571  0.75000
E20   E   0.50000  0.00000  0.00000
E21   E   0.50000  0.00000  0.50000
E22   E   0.50000  0.50000  0.00000
E23   E   0.50000  0.50000  0.50000
E24   E   0.50429  0.50429  0.25000
E25   E   0.50429  0.99571  0.25000
E26   E   0.59749  0.25000  0.75000
E27   E   0.75000  0.09749  0.25000
E28   E   0.75000  0.25000  0.12495
E29   E   0.75000  0.25000  0.37505
E30   E   0.75000  0.25000  0.62495
E31   E   0.75000  0.25000  0.87505
E32   E   0.75000  0.40251  0.25000
E33   E   0.90251  0.25000  0.75000
E34   E   0.99571  0.50429  0.25000
E35   E   0.99571  0.99571  0.25000
loop_
