data_upd_I41/acd:2  hall_number: 429, V_con: 4
_audit_creation_date              2025-03-06
_audit_creation_method            'MOFbuilder_1.0'
_symmetry_space_group_name_H-M    'P1'
_symmetry_Int_Tables_number       1
_symmetry_cell_setting            triclinic
loop_
_symmetry_equiv_pos_as_xyz
  x,y,z
_cell_length_a                    29.3209
_cell_length_b                    29.3209
_cell_length_c                    47.302499999999995
_cell_angle_alpha                 90.0
_cell_angle_beta                  90.0
_cell_angle_gamma                 90.0
loop_
_atom_site_label
_atom_site_type_symbol
_atom_site_fract_x
_atom_site_fract_y
_atom_site_fract_z
V1    V   0.10230  0.10653  0.94716
V2    V   0.10230  0.39347  0.44716
V3    V   0.10230  0.60653  0.05284
V4    V   0.10230  0.89347  0.55284
V5    V   0.14347  0.14770  0.30284
V6    V   0.14347  0.35230  0.80284
V7    V   0.14347  0.64770  0.69716
V8    V   0.14347  0.85230  0.19716
V9    V   0.35653  0.14770  0.69716
V10   V   0.35653  0.35230  0.19716
V11   V   0.35653  0.64770  0.30284
V12   V   0.35653  0.85230  0.80284
V13   V   0.39770  0.10653  0.05284
V14   V   0.39770  0.39347  0.55284
V15   V   0.39770  0.60653  0.94716
V16   V   0.39770  0.89347  0.44716
V17   V   0.60230  0.10653  0.55284
V18   V   0.60230  0.39347  0.05284
V19   V   0.60230  0.60653  0.44716
V20   V   0.60230  0.89347  0.94716
V21   V   0.64347  0.14770  0.19716
V22   V   0.64347  0.35230  0.69716
V23   V   0.64347  0.64770  0.80284
V24   V   0.64347  0.85230  0.30284
V25   V   0.85653  0.14770  0.80284
V26   V   0.85653  0.35230  0.30284
V27   V   0.85653  0.64770  0.19716
V28   V   0.85653  0.85230  0.69716
V29   V   0.89770  0.10653  0.44716
V30   V   0.89770  0.39347  0.94716
V31   V   0.89770  0.60653  0.55284
V32   V   0.89770  0.89347  0.05284
E1    E   0.00000  0.00000  0.00000
E2    E   0.00000  0.00000  0.50000
E3    E   0.00000  0.50000  0.00000
E4    E   0.00000  0.50000  0.50000
E5    E   0.02058  0.12711  0.37500
E6    E   0.02058  0.37289  0.87500
E7    E   0.02058  0.62711  0.62500
E8    E   0.02058  0.87289  0.12500
E9    E   0.12289  0.22942  0.87500
E10   E   0.12289  0.27058  0.37500
E11   E   0.12289  0.72942  0.12500
E12   E   0.12289  0.77058  0.62500
E13   E   0.14347  0.00000  0.25000
E14   E   0.14347  0.50000  0.75000
E15   E   0.25000  0.10653  0.00000
E16   E   0.25000  0.25000  0.25000
E17   E   0.25000  0.25000  0.75000
E18   E   0.25000  0.39347  0.50000
E19   E   0.25000  0.60653  0.00000
E20   E   0.25000  0.75000  0.25000
E21   E   0.25000  0.75000  0.75000
E22   E   0.25000  0.89347  0.50000
E23   E   0.35653  0.00000  0.75000
E24   E   0.35653  0.50000  0.25000
E25   E   0.37711  0.22942  0.12500
E26   E   0.37711  0.27058  0.62500
E27   E   0.37711  0.72942  0.87500
E28   E   0.37711  0.77058  0.37500
E29   E   0.47942  0.12711  0.62500
E30   E   0.47942  0.37289  0.12500
E31   E   0.47942  0.62711  0.37500
E32   E   0.47942  0.87289  0.87500
E33   E   0.50000  0.00000  0.00000
E34   E   0.50000  0.00000  0.50000
E35   E   0.50000  0.50000  0.00000
E36   E   0.50000  0.50000  0.50000
E37   E   0.52058  0.12711  0.12500
E38   E   0.52058  0.37289  0.62500
E39   E   0.52058  0.62711  0.87500
E40   E   0.52058  0.87289  0.37500
E41   E   0.62289  0.22942  0.62500
E42   E   0.62289  0.27058  0.12500
E43   E   0.62289  0.72942  0.37500
E44   E   0.62289  0.77058  0.87500
E45   E   0.64347  0.00000  0.25000
E46   E   0.64347  0.50000  0.75000
E47   E   0.75000  0.10653  0.50000
E48   E   0.75000  0.25000  0.25000
E49   E   0.75000  0.25000  0.75000
E50   E   0.75000  0.39347  0.00000
E51   E   0.75000  0.60653  0.50000
E52   E   0.75000  0.75000  0.25000
E53   E   0.75000  0.75000  0.75000
E54   E   0.75000  0.89347  0.00000
E55   E   0.85653  0.00000  0.75000
E56   E   0.85653  0.50000  0.25000
E57   E   0.87711  0.22942  0.37500
E58   E   0.87711  0.27058  0.87500
E59   E   0.87711  0.72942  0.62500
E60   E   0.87711  0.77058  0.12500
E61   E   0.97942  0.12711  0.87500
E62   E   0.97942  0.37289  0.37500
E63   E   0.97942  0.62711  0.12500
E64   E   0.97942  0.87289  0.62500
loop_
