data_uta_Fd-3m:2  hall_number: 526, V_con: 3
_audit_creation_date              2025-03-06
_audit_creation_method            'MOFbuilder_1.0'
_symmetry_space_group_name_H-M    'P1'
_symmetry_Int_Tables_number       1
_symmetry_cell_setting            triclinic
loop_
_symmetry_equiv_pos_as_xyz
  x,y,z
_cell_length_a                    68.2842
_cell_length_b                    68.2842
_cell_length_c                    68.2842
_cell_angle_alpha                 90.0
_cell_angle_beta                  90.0
_cell_angle_gamma                 90.0
loop_
_atom_site_label
_atom_site_type_symbol
_atom_site_fract_x
_atom_site_fract_y
_atom_site_fract_z
V1    V   0.07316  0.32322  0.32322
V2    V   0.07316  0.42678  0.42678
V3    V   0.07316  0.82322  0.82322
V4    V   0.07316  0.82322  0.82322
V5    V   0.07316  0.92678  0.92678
V6    V   0.07316  0.92678  0.92678
V7    V   0.07322  0.07322  0.92684
V8    V   0.07322  0.17678  0.32316
V9    V   0.07322  0.32316  0.17678
V10   V   0.07322  0.42684  0.57322
V11   V   0.07322  0.57322  0.42684
V12   V   0.07322  0.67678  0.82316
V13   V   0.07322  0.82316  0.67678
V14   V   0.07322  0.92684  0.07322
V15   V   0.07322  0.07322  0.92684
V16   V   0.07322  0.17678  0.32316
V17   V   0.07322  0.32316  0.17678
V18   V   0.07322  0.42684  0.57322
V19   V   0.07322  0.57322  0.42684
V20   V   0.07322  0.67678  0.82316
V21   V   0.07322  0.82316  0.67678
V22   V   0.07322  0.92684  0.07322
V23   V   0.17678  0.07322  0.32316
V24   V   0.17678  0.07322  0.32316
V25   V   0.17678  0.17678  0.92684
V26   V   0.17678  0.32316  0.07322
V27   V   0.17678  0.32316  0.07322
V28   V   0.17678  0.42684  0.67678
V29   V   0.17678  0.42684  0.67678
V30   V   0.17678  0.57322  0.82316
V31   V   0.17678  0.57322  0.82316
V32   V   0.17678  0.67678  0.42684
V33   V   0.17678  0.67678  0.42684
V34   V   0.17678  0.82316  0.57322
V35   V   0.17678  0.82316  0.57322
V36   V   0.17678  0.92684  0.17678
V37   V   0.17684  0.32322  0.92678
V38   V   0.17684  0.32322  0.92678
V39   V   0.17684  0.42678  0.82322
V40   V   0.17684  0.42678  0.82322
V41   V   0.17684  0.82322  0.42678
V42   V   0.17684  0.82322  0.42678
V43   V   0.17684  0.92678  0.32322
V44   V   0.17684  0.92678  0.32322
V45   V   0.32316  0.07322  0.17678
V46   V   0.32316  0.07322  0.17678
V47   V   0.32316  0.17678  0.07322
V48   V   0.32316  0.17678  0.07322
V49   V   0.32316  0.57322  0.67678
V50   V   0.32316  0.57322  0.67678
V51   V   0.32316  0.67678  0.57322
V52   V   0.32316  0.67678  0.57322
V53   V   0.32322  0.07316  0.32322
V54   V   0.32322  0.17684  0.92678
V55   V   0.32322  0.17684  0.92678
V56   V   0.32322  0.32322  0.07316
V57   V   0.32322  0.42678  0.67684
V58   V   0.32322  0.57316  0.82322
V59   V   0.32322  0.57316  0.82322
V60   V   0.32322  0.67684  0.42678
V61   V   0.32322  0.82322  0.57316
V62   V   0.32322  0.82322  0.57316
V63   V   0.32322  0.92678  0.17684
V64   V   0.32322  0.92678  0.17684
V65   V   0.42678  0.07316  0.42678
V66   V   0.42678  0.17684  0.82322
V67   V   0.42678  0.17684  0.82322
V68   V   0.42678  0.32322  0.67684
V69   V   0.42678  0.42678  0.07316
V70   V   0.42678  0.57316  0.92678
V71   V   0.42678  0.57316  0.92678
V72   V   0.42678  0.67684  0.32322
V73   V   0.42678  0.82322  0.17684
V74   V   0.42678  0.82322  0.17684
V75   V   0.42678  0.92678  0.57316
V76   V   0.42678  0.92678  0.57316
V77   V   0.42684  0.07322  0.57322
V78   V   0.42684  0.07322  0.57322
V79   V   0.42684  0.17678  0.67678
V80   V   0.42684  0.17678  0.67678
V81   V   0.42684  0.57322  0.07322
V82   V   0.42684  0.57322  0.07322
V83   V   0.42684  0.67678  0.17678
V84   V   0.42684  0.67678  0.17678
V85   V   0.57316  0.32322  0.82322
V86   V   0.57316  0.32322  0.82322
V87   V   0.57316  0.42678  0.92678
V88   V   0.57316  0.42678  0.92678
V89   V   0.57316  0.82322  0.32322
V90   V   0.57316  0.82322  0.32322
V91   V   0.57316  0.92678  0.42678
V92   V   0.57316  0.92678  0.42678
V93   V   0.57322  0.07322  0.42684
V94   V   0.57322  0.17678  0.82316
V95   V   0.57322  0.32316  0.67678
V96   V   0.57322  0.42684  0.07322
V97   V   0.57322  0.57322  0.92684
V98   V   0.57322  0.67678  0.32316
V99   V   0.57322  0.82316  0.17678
V100  V   0.57322  0.92684  0.57322
V101  V   0.57322  0.07322  0.42684
V102  V   0.57322  0.17678  0.82316
V103  V   0.57322  0.32316  0.67678
V104  V   0.57322  0.42684  0.07322
V105  V   0.57322  0.57322  0.92684
V106  V   0.57322  0.67678  0.32316
V107  V   0.57322  0.82316  0.17678
V108  V   0.57322  0.92684  0.57322
V109  V   0.67678  0.07322  0.82316
V110  V   0.67678  0.17678  0.42684
V111  V   0.67678  0.32316  0.57322
V112  V   0.67678  0.42684  0.17678
V113  V   0.67678  0.57322  0.32316
V114  V   0.67678  0.67678  0.92684
V115  V   0.67678  0.82316  0.07322
V116  V   0.67678  0.92684  0.67678
V117  V   0.67678  0.07322  0.82316
V118  V   0.67678  0.17678  0.42684
V119  V   0.67678  0.32316  0.57322
V120  V   0.67678  0.42684  0.17678
V121  V   0.67678  0.57322  0.32316
V122  V   0.67678  0.67678  0.92684
V123  V   0.67678  0.82316  0.07322
V124  V   0.67678  0.92684  0.67678
V125  V   0.67684  0.32322  0.42678
V126  V   0.67684  0.42678  0.32322
V127  V   0.67684  0.82322  0.92678
V128  V   0.67684  0.82322  0.92678
V129  V   0.67684  0.92678  0.82322
V130  V   0.67684  0.92678  0.82322
V131  V   0.82316  0.07322  0.67678
V132  V   0.82316  0.07322  0.67678
V133  V   0.82316  0.17678  0.57322
V134  V   0.82316  0.17678  0.57322
V135  V   0.82316  0.57322  0.17678
V136  V   0.82316  0.57322  0.17678
V137  V   0.82316  0.67678  0.07322
V138  V   0.82316  0.67678  0.07322
V139  V   0.82322  0.07316  0.82322
V140  V   0.82322  0.17684  0.42678
V141  V   0.82322  0.32322  0.57316
V142  V   0.82322  0.42678  0.17684
V143  V   0.82322  0.57316  0.32322
V144  V   0.82322  0.67684  0.92678
V145  V   0.82322  0.82322  0.07316
V146  V   0.82322  0.92678  0.67684
V147  V   0.82322  0.07316  0.82322
V148  V   0.82322  0.17684  0.42678
V149  V   0.82322  0.32322  0.57316
V150  V   0.82322  0.42678  0.17684
V151  V   0.82322  0.57316  0.32322
V152  V   0.82322  0.67684  0.92678
V153  V   0.82322  0.82322  0.07316
V154  V   0.82322  0.92678  0.67684
V155  V   0.92678  0.07316  0.92678
V156  V   0.92678  0.17684  0.32322
V157  V   0.92678  0.32322  0.17684
V158  V   0.92678  0.42678  0.57316
V159  V   0.92678  0.57316  0.42678
V160  V   0.92678  0.67684  0.82322
V161  V   0.92678  0.82322  0.67684
V162  V   0.92678  0.92678  0.07316
V163  V   0.92678  0.07316  0.92678
V164  V   0.92678  0.17684  0.32322
V165  V   0.92678  0.32322  0.17684
V166  V   0.92678  0.42678  0.57316
V167  V   0.92678  0.57316  0.42678
V168  V   0.92678  0.67684  0.82322
V169  V   0.92678  0.82322  0.67684
V170  V   0.92678  0.92678  0.07316
V171  V   0.92684  0.07322  0.07322
V172  V   0.92684  0.07322  0.07322
V173  V   0.92684  0.17678  0.17678
V174  V   0.92684  0.57322  0.57322
V175  V   0.92684  0.57322  0.57322
V176  V   0.92684  0.67678  0.67678
V177  V   0.92684  0.67678  0.67678
E1    E   0.00000  0.07319  0.92681
E2    E   0.00000  0.07319  0.92681
E3    E   0.00000  0.17681  0.32319
E4    E   0.00000  0.17681  0.32319
E5    E   0.00000  0.32319  0.17681
E6    E   0.00000  0.32319  0.17681
E7    E   0.00000  0.42681  0.57319
E8    E   0.00000  0.57319  0.42681
E9    E   0.00000  0.67681  0.82319
E10   E   0.00000  0.82319  0.67681
E11   E   0.00000  0.92681  0.07319
E12   E   0.00000  0.92681  0.07319
E13   E   0.07316  0.37500  0.37500
E14   E   0.07316  0.87500  0.87500
E15   E   0.07319  0.00000  0.92681
E16   E   0.07319  0.25000  0.32319
E17   E   0.07319  0.32319  0.25000
E18   E   0.07319  0.42681  0.50000
E19   E   0.07319  0.50000  0.42681
E20   E   0.07319  0.75000  0.82319
E21   E   0.07319  0.82319  0.75000
E22   E   0.07319  0.92681  0.00000
E23   E   0.07319  0.00000  0.92681
E24   E   0.07319  0.25000  0.32319
E25   E   0.07319  0.32319  0.25000
E26   E   0.07319  0.42681  0.50000
E27   E   0.07319  0.50000  0.42681
E28   E   0.07319  0.75000  0.82319
E29   E   0.07319  0.82319  0.75000
E30   E   0.07319  0.92681  0.00000
E31   E   0.12500  0.12500  0.32316
E32   E   0.12500  0.12500  0.92684
E33   E   0.12500  0.32316  0.12500
E34   E   0.12500  0.42684  0.62500
E35   E   0.12500  0.62500  0.42684
E36   E   0.12500  0.62500  0.82316
E37   E   0.12500  0.82316  0.62500
E38   E   0.12500  0.92684  0.12500
E39   E   0.17681  0.00000  0.32319
E40   E   0.17681  0.25000  0.92681
E41   E   0.17681  0.32319  0.00000
E42   E   0.17681  0.42681  0.75000
E43   E   0.17681  0.50000  0.82319
E44   E   0.17681  0.75000  0.42681
E45   E   0.17681  0.82319  0.50000
E46   E   0.17681  0.92681  0.25000
E47   E   0.17681  0.00000  0.32319
E48   E   0.17681  0.25000  0.92681
E49   E   0.17681  0.32319  0.00000
E50   E   0.17681  0.42681  0.75000
E51   E   0.17681  0.50000  0.82319
E52   E   0.17681  0.75000  0.42681
E53   E   0.17681  0.82319  0.50000
E54   E   0.17681  0.92681  0.25000
E55   E   0.17684  0.37500  0.87500
E56   E   0.17684  0.87500  0.37500
E57   E   0.25000  0.07319  0.32319
E58   E   0.25000  0.07319  0.32319
E59   E   0.25000  0.17681  0.92681
E60   E   0.25000  0.17681  0.92681
E61   E   0.25000  0.32319  0.07319
E62   E   0.25000  0.32319  0.07319
E63   E   0.25000  0.42681  0.67681
E64   E   0.25000  0.57319  0.82319
E65   E   0.25000  0.67681  0.42681
E66   E   0.25000  0.82319  0.57319
E67   E   0.25000  0.92681  0.17681
E68   E   0.25000  0.92681  0.17681
E69   E   0.32316  0.12500  0.12500
E70   E   0.32316  0.62500  0.62500
E71   E   0.32319  0.00000  0.17681
E72   E   0.32319  0.00000  0.17681
E73   E   0.32319  0.07319  0.25000
E74   E   0.32319  0.07319  0.25000
E75   E   0.32319  0.17681  0.00000
E76   E   0.32319  0.17681  0.00000
E77   E   0.32319  0.25000  0.07319
E78   E   0.32319  0.25000  0.07319
E79   E   0.32319  0.50000  0.67681
E80   E   0.32319  0.57319  0.75000
E81   E   0.32319  0.67681  0.50000
E82   E   0.32319  0.75000  0.57319
E83   E   0.37500  0.07316  0.37500
E84   E   0.37500  0.17684  0.87500
E85   E   0.37500  0.37500  0.07316
E86   E   0.37500  0.37500  0.67684
E87   E   0.37500  0.57316  0.87500
E88   E   0.37500  0.67684  0.37500
E89   E   0.37500  0.87500  0.17684
E90   E   0.37500  0.87500  0.57316
E91   E   0.42681  0.00000  0.57319
E92   E   0.42681  0.07319  0.50000
E93   E   0.42681  0.07319  0.50000
E94   E   0.42681  0.17681  0.75000
E95   E   0.42681  0.17681  0.75000
E96   E   0.42681  0.25000  0.67681
E97   E   0.42681  0.50000  0.07319
E98   E   0.42681  0.50000  0.07319
E99   E   0.42681  0.57319  0.00000
E100  E   0.42681  0.67681  0.25000
E101  E   0.42681  0.75000  0.17681
E102  E   0.42681  0.75000  0.17681
E103  E   0.42684  0.12500  0.62500
E104  E   0.42684  0.62500  0.12500
E105  E   0.50000  0.07319  0.42681
E106  E   0.50000  0.07319  0.42681
E107  E   0.50000  0.17681  0.82319
E108  E   0.50000  0.17681  0.82319
E109  E   0.50000  0.32319  0.67681
E110  E   0.50000  0.42681  0.07319
E111  E   0.50000  0.42681  0.07319
E112  E   0.50000  0.57319  0.92681
E113  E   0.50000  0.67681  0.32319
E114  E   0.50000  0.82319  0.17681
E115  E   0.50000  0.82319  0.17681
E116  E   0.50000  0.92681  0.57319
E117  E   0.57316  0.37500  0.87500
E118  E   0.57316  0.87500  0.37500
E119  E   0.57319  0.00000  0.42681
E120  E   0.57319  0.25000  0.82319
E121  E   0.57319  0.32319  0.75000
E122  E   0.57319  0.42681  0.00000
E123  E   0.57319  0.50000  0.92681
E124  E   0.57319  0.75000  0.32319
E125  E   0.57319  0.82319  0.25000
E126  E   0.57319  0.92681  0.50000
E127  E   0.62500  0.12500  0.42684
E128  E   0.62500  0.12500  0.82316
E129  E   0.62500  0.32316  0.62500
E130  E   0.62500  0.42684  0.12500
E131  E   0.62500  0.62500  0.32316
E132  E   0.62500  0.62500  0.92684
E133  E   0.62500  0.82316  0.12500
E134  E   0.62500  0.92684  0.62500
E135  E   0.67681  0.00000  0.82319
E136  E   0.67681  0.25000  0.42681
E137  E   0.67681  0.32319  0.50000
E138  E   0.67681  0.42681  0.25000
E139  E   0.67681  0.50000  0.32319
E140  E   0.67681  0.75000  0.92681
E141  E   0.67681  0.82319  0.00000
E142  E   0.67681  0.92681  0.75000
E143  E   0.67684  0.37500  0.37500
E144  E   0.67684  0.87500  0.87500
E145  E   0.75000  0.07319  0.82319
E146  E   0.75000  0.07319  0.82319
E147  E   0.75000  0.17681  0.42681
E148  E   0.75000  0.17681  0.42681
E149  E   0.75000  0.32319  0.57319
E150  E   0.75000  0.42681  0.17681
E151  E   0.75000  0.42681  0.17681
E152  E   0.75000  0.57319  0.32319
E153  E   0.75000  0.67681  0.92681
E154  E   0.75000  0.82319  0.07319
E155  E   0.75000  0.82319  0.07319
E156  E   0.75000  0.92681  0.67681
E157  E   0.82316  0.12500  0.62500
E158  E   0.82316  0.62500  0.12500
E159  E   0.82319  0.00000  0.67681
E160  E   0.82319  0.07319  0.75000
E161  E   0.82319  0.07319  0.75000
E162  E   0.82319  0.17681  0.50000
E163  E   0.82319  0.17681  0.50000
E164  E   0.82319  0.25000  0.57319
E165  E   0.82319  0.50000  0.17681
E166  E   0.82319  0.50000  0.17681
E167  E   0.82319  0.57319  0.25000
E168  E   0.82319  0.67681  0.00000
E169  E   0.82319  0.75000  0.07319
E170  E   0.82319  0.75000  0.07319
E171  E   0.87500  0.07316  0.87500
E172  E   0.87500  0.17684  0.37500
E173  E   0.87500  0.37500  0.17684
E174  E   0.87500  0.37500  0.57316
E175  E   0.87500  0.57316  0.37500
E176  E   0.87500  0.67684  0.87500
E177  E   0.87500  0.87500  0.07316
E178  E   0.87500  0.87500  0.67684
E179  E   0.92681  0.00000  0.07319
E180  E   0.92681  0.00000  0.07319
E181  E   0.92681  0.07319  0.00000
E182  E   0.92681  0.07319  0.00000
E183  E   0.92681  0.17681  0.25000
E184  E   0.92681  0.17681  0.25000
E185  E   0.92681  0.25000  0.17681
E186  E   0.92681  0.25000  0.17681
E187  E   0.92681  0.50000  0.57319
E188  E   0.92681  0.57319  0.50000
E189  E   0.92681  0.67681  0.75000
E190  E   0.92681  0.75000  0.67681
E191  E   0.92684  0.12500  0.12500
E192  E   0.92684  0.62500  0.62500
loop_
