data_utg_I4122  hall_number: 375, V_con: 3
_audit_creation_date              2025-03-06
_audit_creation_method            'MOFbuilder_1.0'
_symmetry_space_group_name_H-M    'P1'
_symmetry_Int_Tables_number       1
_symmetry_cell_setting            triclinic
loop_
_symmetry_equiv_pos_as_xyz
  x,y,z
_cell_length_a                    25.228299999999997
_cell_length_b                    25.228299999999997
_cell_length_c                    59.946799999999996
_cell_angle_alpha                 90.0
_cell_angle_beta                  90.0
_cell_angle_gamma                 90.0
loop_
_atom_site_label
_atom_site_type_symbol
_atom_site_fract_x
_atom_site_fract_y
_atom_site_fract_z
V1    V   0.11007  0.16481  0.20031
V2    V   0.11007  0.33519  0.04969
V3    V   0.16481  0.11007  0.79969
V4    V   0.16481  0.38993  0.45031
V5    V   0.33519  0.11007  0.95031
V6    V   0.33519  0.38993  0.29969
V7    V   0.38993  0.16481  0.54969
V8    V   0.38993  0.33519  0.70031
V9    V   0.61007  0.66481  0.70031
V10   V   0.61007  0.83519  0.54969
V11   V   0.66481  0.61007  0.29969
V12   V   0.66481  0.88993  0.95031
V13   V   0.83519  0.61007  0.45031
V14   V   0.83519  0.88993  0.79969
V15   V   0.88993  0.66481  0.04969
V16   V   0.88993  0.83519  0.20031
E1    E   0.00000  0.00000  0.20031
E2    E   0.00000  0.00000  0.79969
E3    E   0.00000  0.50000  0.04969
E4    E   0.00000  0.50000  0.45031
E5    E   0.11007  0.25000  0.12500
E6    E   0.22263  0.22263  0.00000
E7    E   0.22263  0.27737  0.25000
E8    E   0.25000  0.11007  0.87500
E9    E   0.25000  0.38993  0.37500
E10   E   0.27737  0.22263  0.75000
E11   E   0.27737  0.27737  0.50000
E12   E   0.38993  0.25000  0.62500
E13   E   0.50000  0.00000  0.54969
E14   E   0.50000  0.00000  0.95031
E15   E   0.50000  0.50000  0.29969
E16   E   0.50000  0.50000  0.70031
E17   E   0.61007  0.75000  0.62500
E18   E   0.72263  0.72263  0.50000
E19   E   0.72263  0.77737  0.75000
E20   E   0.75000  0.61007  0.37500
E21   E   0.75000  0.88993  0.87500
E22   E   0.77737  0.72263  0.25000
E23   E   0.77737  0.77737  0.00000
E24   E   0.88993  0.75000  0.12500
loop_
