data_vba_Fddd:2  hall_number: 336, V_con: 4
_audit_creation_date              2025-03-06
_audit_creation_method            'MOFbuilder_1.0'
_symmetry_space_group_name_H-M    'P1'
_symmetry_Int_Tables_number       1
_symmetry_cell_setting            triclinic
loop_
_symmetry_equiv_pos_as_xyz
  x,y,z
_cell_length_a                    17.0478
_cell_length_b                    60.84609999999999
_cell_length_c                    35.692
_cell_angle_alpha                 90.0
_cell_angle_beta                  90.0
_cell_angle_gamma                 90.0
loop_
_atom_site_label
_atom_site_type_symbol
_atom_site_fract_x
_atom_site_fract_y
_atom_site_fract_z
V1    V   0.03940  0.30695  0.49101
V2    V   0.03940  0.44305  0.25899
V3    V   0.03940  0.80695  0.99101
V4    V   0.03940  0.94305  0.75899
V5    V   0.21060  0.30695  0.75899
V6    V   0.21060  0.44305  0.99101
V7    V   0.21060  0.80695  0.25899
V8    V   0.21060  0.94305  0.49101
V9    V   0.28940  0.05695  0.00899
V10   V   0.28940  0.19305  0.24101
V11   V   0.28940  0.55695  0.50899
V12   V   0.28940  0.69305  0.74101
V13   V   0.46060  0.05695  0.74101
V14   V   0.46060  0.19305  0.50899
V15   V   0.46060  0.55695  0.24101
V16   V   0.46060  0.69305  0.00899
V17   V   0.53940  0.30695  0.99101
V18   V   0.53940  0.44305  0.75899
V19   V   0.53940  0.80695  0.49101
V20   V   0.53940  0.94305  0.25899
V21   V   0.71060  0.30695  0.25899
V22   V   0.71060  0.44305  0.49101
V23   V   0.71060  0.80695  0.75899
V24   V   0.71060  0.94305  0.99101
V25   V   0.78940  0.05695  0.50899
V26   V   0.78940  0.19305  0.74101
V27   V   0.78940  0.55695  0.00899
V28   V   0.78940  0.69305  0.24101
V29   V   0.96060  0.05695  0.24101
V30   V   0.96060  0.19305  0.00899
V31   V   0.96060  0.55695  0.74101
V32   V   0.96060  0.69305  0.50899
E1    E   0.00000  0.00000  0.50000
E2    E   0.00000  0.25000  0.75000
E3    E   0.00000  0.50000  0.00000
E4    E   0.00000  0.75000  0.25000
E5    E   0.12500  0.05695  0.12500
E6    E   0.12500  0.12500  0.00899
E7    E   0.12500  0.12500  0.24101
E8    E   0.12500  0.19305  0.12500
E9    E   0.12500  0.30695  0.62500
E10   E   0.12500  0.44305  0.12500
E11   E   0.12500  0.55695  0.62500
E12   E   0.12500  0.62500  0.50899
E13   E   0.12500  0.62500  0.74101
E14   E   0.12500  0.69305  0.62500
E15   E   0.12500  0.80695  0.12500
E16   E   0.12500  0.94305  0.62500
E17   E   0.25000  0.00000  0.75000
E18   E   0.25000  0.25000  0.50000
E19   E   0.25000  0.50000  0.25000
E20   E   0.25000  0.75000  0.00000
E21   E   0.37500  0.05695  0.87500
E22   E   0.37500  0.19305  0.37500
E23   E   0.37500  0.30695  0.87500
E24   E   0.37500  0.37500  0.75899
E25   E   0.37500  0.37500  0.99101
E26   E   0.37500  0.44305  0.87500
E27   E   0.37500  0.55695  0.37500
E28   E   0.37500  0.69305  0.87500
E29   E   0.37500  0.80695  0.37500
E30   E   0.37500  0.87500  0.25899
E31   E   0.37500  0.87500  0.49101
E32   E   0.37500  0.94305  0.37500
E33   E   0.50000  0.00000  0.00000
E34   E   0.50000  0.25000  0.25000
E35   E   0.50000  0.50000  0.50000
E36   E   0.50000  0.75000  0.75000
E37   E   0.62500  0.05695  0.62500
E38   E   0.62500  0.12500  0.50899
E39   E   0.62500  0.12500  0.74101
E40   E   0.62500  0.19305  0.62500
E41   E   0.62500  0.30695  0.12500
E42   E   0.62500  0.44305  0.62500
E43   E   0.62500  0.55695  0.12500
E44   E   0.62500  0.62500  0.00899
E45   E   0.62500  0.62500  0.24101
E46   E   0.62500  0.69305  0.12500
E47   E   0.62500  0.80695  0.62500
E48   E   0.62500  0.94305  0.12500
E49   E   0.75000  0.00000  0.25000
E50   E   0.75000  0.25000  0.00000
E51   E   0.75000  0.50000  0.75000
E52   E   0.75000  0.75000  0.50000
E53   E   0.87500  0.05695  0.37500
E54   E   0.87500  0.19305  0.87500
E55   E   0.87500  0.30695  0.37500
E56   E   0.87500  0.37500  0.25899
E57   E   0.87500  0.37500  0.49101
E58   E   0.87500  0.44305  0.37500
E59   E   0.87500  0.55695  0.87500
E60   E   0.87500  0.69305  0.37500
E61   E   0.87500  0.80695  0.87500
E62   E   0.87500  0.87500  0.75899
E63   E   0.87500  0.87500  0.99101
E64   E   0.87500  0.94305  0.87500
loop_
