data_vbg_Fddd:2  hall_number: 336, V_con: 5
_audit_creation_date              2025-03-06
_audit_creation_method            'MOFbuilder_1.0'
_symmetry_space_group_name_H-M    'P1'
_symmetry_Int_Tables_number       1
_symmetry_cell_setting            triclinic
loop_
_symmetry_equiv_pos_as_xyz
  x,y,z
_cell_length_a                    54.184400000000004
_cell_length_b                    28.9826
_cell_length_c                    23.194300000000002
_cell_angle_alpha                 90.0
_cell_angle_beta                  90.0
_cell_angle_gamma                 90.0
loop_
_atom_site_label
_atom_site_type_symbol
_atom_site_fract_x
_atom_site_fract_y
_atom_site_fract_z
V1    V   0.03438  0.09249  0.83671
V2    V   0.03438  0.15751  0.41329
V3    V   0.03438  0.59249  0.33671
V4    V   0.03438  0.65751  0.91329
V5    V   0.21562  0.09249  0.41329
V6    V   0.21562  0.15751  0.83671
V7    V   0.21562  0.59249  0.91329
V8    V   0.21562  0.65751  0.33671
V9    V   0.28438  0.34249  0.16329
V10   V   0.28438  0.40751  0.58671
V11   V   0.28438  0.84249  0.66329
V12   V   0.28438  0.90751  0.08671
V13   V   0.46562  0.34249  0.58671
V14   V   0.46562  0.40751  0.16329
V15   V   0.46562  0.84249  0.08671
V16   V   0.46562  0.90751  0.66329
V17   V   0.53438  0.09249  0.33671
V18   V   0.53438  0.15751  0.91329
V19   V   0.53438  0.59249  0.83671
V20   V   0.53438  0.65751  0.41329
V21   V   0.71562  0.09249  0.91329
V22   V   0.71562  0.15751  0.33671
V23   V   0.71562  0.59249  0.41329
V24   V   0.71562  0.65751  0.83671
V25   V   0.78438  0.34249  0.66329
V26   V   0.78438  0.40751  0.08671
V27   V   0.78438  0.84249  0.16329
V28   V   0.78438  0.90751  0.58671
V29   V   0.96562  0.34249  0.08671
V30   V   0.96562  0.40751  0.66329
V31   V   0.96562  0.84249  0.58671
V32   V   0.96562  0.90751  0.16329
E1    E   0.00000  0.00000  0.00000
E2    E   0.00000  0.03251  0.28829
E3    E   0.00000  0.21749  0.96171
E4    E   0.00000  0.25000  0.25000
E5    E   0.00000  0.28251  0.53829
E6    E   0.00000  0.46749  0.21171
E7    E   0.00000  0.50000  0.50000
E8    E   0.00000  0.53251  0.78829
E9    E   0.00000  0.71749  0.46171
E10   E   0.00000  0.75000  0.75000
E11   E   0.00000  0.78251  0.03829
E12   E   0.00000  0.96749  0.71171
E13   E   0.03438  0.12500  0.62500
E14   E   0.03438  0.62500  0.12500
E15   E   0.12500  0.12500  0.41329
E16   E   0.12500  0.12500  0.83671
E17   E   0.12500  0.62500  0.33671
E18   E   0.12500  0.62500  0.91329
E19   E   0.21562  0.12500  0.62500
E20   E   0.21562  0.62500  0.12500
E21   E   0.25000  0.00000  0.25000
E22   E   0.25000  0.03251  0.96171
E23   E   0.25000  0.21749  0.28829
E24   E   0.25000  0.25000  0.00000
E25   E   0.25000  0.28251  0.71171
E26   E   0.25000  0.46749  0.03829
E27   E   0.25000  0.50000  0.75000
E28   E   0.25000  0.53251  0.46171
E29   E   0.25000  0.71749  0.78829
E30   E   0.25000  0.75000  0.50000
E31   E   0.25000  0.78251  0.21171
E32   E   0.25000  0.96749  0.53829
E33   E   0.28438  0.37500  0.37500
E34   E   0.28438  0.87500  0.87500
E35   E   0.37500  0.37500  0.16329
E36   E   0.37500  0.37500  0.58671
E37   E   0.37500  0.87500  0.08671
E38   E   0.37500  0.87500  0.66329
E39   E   0.46562  0.37500  0.37500
E40   E   0.46562  0.87500  0.87500
E41   E   0.50000  0.00000  0.50000
E42   E   0.50000  0.03251  0.78829
E43   E   0.50000  0.21749  0.46171
E44   E   0.50000  0.25000  0.75000
E45   E   0.50000  0.28251  0.03829
E46   E   0.50000  0.46749  0.71171
E47   E   0.50000  0.50000  0.00000
E48   E   0.50000  0.53251  0.28829
E49   E   0.50000  0.71749  0.96171
E50   E   0.50000  0.75000  0.25000
E51   E   0.50000  0.78251  0.53829
E52   E   0.50000  0.96749  0.21171
E53   E   0.53438  0.12500  0.12500
E54   E   0.53438  0.62500  0.62500
E55   E   0.62500  0.12500  0.33671
E56   E   0.62500  0.12500  0.91329
E57   E   0.62500  0.62500  0.41329
E58   E   0.62500  0.62500  0.83671
E59   E   0.71562  0.12500  0.12500
E60   E   0.71562  0.62500  0.62500
E61   E   0.75000  0.00000  0.75000
E62   E   0.75000  0.03251  0.46171
E63   E   0.75000  0.21749  0.78829
E64   E   0.75000  0.25000  0.50000
E65   E   0.75000  0.28251  0.21171
E66   E   0.75000  0.46749  0.53829
E67   E   0.75000  0.50000  0.25000
E68   E   0.75000  0.53251  0.96171
E69   E   0.75000  0.71749  0.28829
E70   E   0.75000  0.75000  0.00000
E71   E   0.75000  0.78251  0.71171
E72   E   0.75000  0.96749  0.03829
E73   E   0.78438  0.37500  0.87500
E74   E   0.78438  0.87500  0.37500
E75   E   0.87500  0.37500  0.08671
E76   E   0.87500  0.37500  0.66329
E77   E   0.87500  0.87500  0.16329
E78   E   0.87500  0.87500  0.58671
E79   E   0.96562  0.37500  0.87500
E80   E   0.96562  0.87500  0.37500
loop_
