data_vbj_Ccca:2  hall_number: 325, V_con: 5
_audit_creation_date              2025-03-06
_audit_creation_method            'MOFbuilder_1.0'
_symmetry_space_group_name_H-M    'P1'
_symmetry_Int_Tables_number       1
_symmetry_cell_setting            triclinic
loop_
_symmetry_equiv_pos_as_xyz
  x,y,z
_cell_length_a                    16.182399999999998
_cell_length_b                    36.1586
_cell_length_c                    30.9637
_cell_angle_alpha                 90.0
_cell_angle_beta                  90.0
_cell_angle_gamma                 90.0
loop_
_atom_site_label
_atom_site_type_symbol
_atom_site_fract_x
_atom_site_fract_y
_atom_site_fract_z
V1    V   0.08594  0.11718  0.09489
V2    V   0.08594  0.38282  0.59489
V3    V   0.08594  0.61718  0.90511
V4    V   0.08594  0.88282  0.40511
V5    V   0.41406  0.11718  0.40511
V6    V   0.41406  0.38282  0.90511
V7    V   0.41406  0.61718  0.59489
V8    V   0.41406  0.88282  0.09489
V9    V   0.58594  0.11718  0.90511
V10   V   0.58594  0.38282  0.40511
V11   V   0.58594  0.61718  0.09489
V12   V   0.58594  0.88282  0.59489
V13   V   0.91406  0.11718  0.59489
V14   V   0.91406  0.38282  0.09489
V15   V   0.91406  0.61718  0.40511
V16   V   0.91406  0.88282  0.90511
E1    E   0.00000  0.11718  0.25000
E2    E   0.00000  0.11718  0.75000
E3    E   0.00000  0.25000  0.09489
E4    E   0.00000  0.25000  0.59489
E5    E   0.00000  0.38282  0.25000
E6    E   0.00000  0.38282  0.75000
E7    E   0.00000  0.61718  0.25000
E8    E   0.00000  0.61718  0.75000
E9    E   0.00000  0.75000  0.40511
E10   E   0.00000  0.75000  0.90511
E11   E   0.00000  0.88282  0.25000
E12   E   0.00000  0.88282  0.75000
E13   E   0.16406  0.11718  0.50000
E14   E   0.16406  0.38282  0.00000
E15   E   0.16406  0.61718  0.50000
E16   E   0.16406  0.88282  0.00000
E17   E   0.25000  0.00000  0.09489
E18   E   0.25000  0.00000  0.40511
E19   E   0.25000  0.50000  0.59489
E20   E   0.25000  0.50000  0.90511
E21   E   0.33594  0.11718  0.00000
E22   E   0.33594  0.38282  0.50000
E23   E   0.33594  0.61718  0.00000
E24   E   0.33594  0.88282  0.50000
E25   E   0.50000  0.11718  0.25000
E26   E   0.50000  0.11718  0.75000
E27   E   0.50000  0.25000  0.40511
E28   E   0.50000  0.25000  0.90511
E29   E   0.50000  0.38282  0.25000
E30   E   0.50000  0.38282  0.75000
E31   E   0.50000  0.61718  0.25000
E32   E   0.50000  0.61718  0.75000
E33   E   0.50000  0.75000  0.09489
E34   E   0.50000  0.75000  0.59489
E35   E   0.50000  0.88282  0.25000
E36   E   0.50000  0.88282  0.75000
E37   E   0.66406  0.11718  0.50000
E38   E   0.66406  0.38282  0.00000
E39   E   0.66406  0.61718  0.50000
E40   E   0.66406  0.88282  0.00000
E41   E   0.75000  0.00000  0.59489
E42   E   0.75000  0.00000  0.90511
E43   E   0.75000  0.50000  0.09489
E44   E   0.75000  0.50000  0.40511
E45   E   0.83594  0.11718  0.00000
E46   E   0.83594  0.38282  0.50000
E47   E   0.83594  0.61718  0.00000
E48   E   0.83594  0.88282  0.50000
loop_
