data_vbm_Cccm  hall_number: 313, V_con: 6
_audit_creation_date              2025-03-06
_audit_creation_method            'MOFbuilder_1.0'
_symmetry_space_group_name_H-M    'P1'
_symmetry_Int_Tables_number       1
_symmetry_cell_setting            triclinic
loop_
_symmetry_equiv_pos_as_xyz
  x,y,z
_cell_length_a                    38.5981
_cell_length_b                    10.0
_cell_length_c                    39.699
_cell_angle_alpha                 90.0
_cell_angle_beta                  90.0
_cell_angle_gamma                 90.0
loop_
_atom_site_label
_atom_site_type_symbol
_atom_site_fract_x
_atom_site_fract_y
_atom_site_fract_z
V1    V   0.12759  0.08641  0.12595
V2    V   0.12759  0.08641  0.87405
V3    V   0.12759  0.91359  0.37405
V4    V   0.12759  0.91359  0.62595
V5    V   0.37241  0.41359  0.12595
V6    V   0.37241  0.41359  0.87405
V7    V   0.37241  0.58641  0.37405
V8    V   0.37241  0.58641  0.62595
V9    V   0.62759  0.41359  0.37405
V10   V   0.62759  0.41359  0.62595
V11   V   0.62759  0.58641  0.12595
V12   V   0.62759  0.58641  0.87405
V13   V   0.87241  0.08641  0.37405
V14   V   0.87241  0.08641  0.62595
V15   V   0.87241  0.91359  0.12595
V16   V   0.87241  0.91359  0.87405
E1    E   0.00000  0.00000  0.12595
E2    E   0.00000  0.00000  0.37405
E3    E   0.00000  0.00000  0.62595
E4    E   0.00000  0.00000  0.87405
E5    E   0.12759  0.00000  0.25000
E6    E   0.12759  0.00000  0.75000
E7    E   0.12759  0.08641  0.00000
E8    E   0.12759  0.41359  0.37405
E9    E   0.12759  0.41359  0.62595
E10   E   0.12759  0.58641  0.12595
E11   E   0.12759  0.58641  0.87405
E12   E   0.12759  0.91359  0.50000
E13   E   0.25000  0.25000  0.12595
E14   E   0.25000  0.25000  0.87405
E15   E   0.25000  0.75000  0.37405
E16   E   0.25000  0.75000  0.62595
E17   E   0.37241  0.08641  0.37405
E18   E   0.37241  0.08641  0.62595
E19   E   0.37241  0.41359  0.00000
E20   E   0.37241  0.50000  0.25000
E21   E   0.37241  0.50000  0.75000
E22   E   0.37241  0.58641  0.50000
E23   E   0.37241  0.91359  0.12595
E24   E   0.37241  0.91359  0.87405
E25   E   0.50000  0.50000  0.12595
E26   E   0.50000  0.50000  0.37405
E27   E   0.50000  0.50000  0.62595
E28   E   0.50000  0.50000  0.87405
E29   E   0.62759  0.08641  0.12595
E30   E   0.62759  0.08641  0.87405
E31   E   0.62759  0.41359  0.50000
E32   E   0.62759  0.50000  0.25000
E33   E   0.62759  0.50000  0.75000
E34   E   0.62759  0.58641  0.00000
E35   E   0.62759  0.91359  0.37405
E36   E   0.62759  0.91359  0.62595
E37   E   0.75000  0.25000  0.37405
E38   E   0.75000  0.25000  0.62595
E39   E   0.75000  0.75000  0.12595
E40   E   0.75000  0.75000  0.87405
E41   E   0.87241  0.00000  0.25000
E42   E   0.87241  0.00000  0.75000
E43   E   0.87241  0.08641  0.50000
E44   E   0.87241  0.41359  0.12595
E45   E   0.87241  0.41359  0.87405
E46   E   0.87241  0.58641  0.37405
E47   E   0.87241  0.58641  0.62595
E48   E   0.87241  0.91359  0.00000
loop_
