data_vbn_Pbcn  hall_number: 284, V_con: 6
_audit_creation_date              2025-03-06
_audit_creation_method            'MOFbuilder_1.0'
_symmetry_space_group_name_H-M    'P1'
_symmetry_Int_Tables_number       1
_symmetry_cell_setting            triclinic
loop_
_symmetry_equiv_pos_as_xyz
  x,y,z
_cell_length_a                    16.2941
_cell_length_b                    18.2661
_cell_length_c                    29.2618
_cell_angle_alpha                 90.0
_cell_angle_beta                  90.0
_cell_angle_gamma                 90.0
loop_
_atom_site_label
_atom_site_type_symbol
_atom_site_fract_x
_atom_site_fract_y
_atom_site_fract_z
V1    V   0.12502  0.19959  0.90605
V2    V   0.12502  0.80041  0.40605
V3    V   0.37498  0.30041  0.40605
V4    V   0.37498  0.69959  0.90605
V5    V   0.62502  0.30041  0.09395
V6    V   0.62502  0.69959  0.59395
V7    V   0.87498  0.19959  0.59395
V8    V   0.87498  0.80041  0.09395
E1    E   0.00000  0.00000  0.00000
E2    E   0.00000  0.00000  0.50000
E3    E   0.00000  0.19959  0.75000
E4    E   0.00000  0.80041  0.25000
E5    E   0.12498  0.25000  0.50000
E6    E   0.12498  0.75000  0.00000
E7    E   0.25000  0.05041  0.40605
E8    E   0.25000  0.44959  0.90605
E9    E   0.25000  0.55041  0.40605
E10   E   0.25000  0.94959  0.90605
E11   E   0.37502  0.25000  0.00000
E12   E   0.37502  0.75000  0.50000
E13   E   0.50000  0.30041  0.25000
E14   E   0.50000  0.50000  0.00000
E15   E   0.50000  0.50000  0.50000
E16   E   0.50000  0.69959  0.75000
E17   E   0.62498  0.25000  0.50000
E18   E   0.62498  0.75000  0.00000
E19   E   0.75000  0.05041  0.09395
E20   E   0.75000  0.44959  0.59395
E21   E   0.75000  0.55041  0.09395
E22   E   0.75000  0.94959  0.59395
E23   E   0.87502  0.25000  0.00000
E24   E   0.87502  0.75000  0.50000
loop_
