data_vbo_C2221  hall_number: 116, V_con: 6
_audit_creation_date              2025-03-06
_audit_creation_method            'MOFbuilder_1.0'
_symmetry_space_group_name_H-M    'P1'
_symmetry_Int_Tables_number       1
_symmetry_cell_setting            triclinic
loop_
_symmetry_equiv_pos_as_xyz
  x,y,z
_cell_length_a                    18.2611
_cell_length_b                    27.3536
_cell_length_c                    17.857400000000002
_cell_angle_alpha                 90.0
_cell_angle_beta                  90.0
_cell_angle_gamma                 90.0
loop_
_atom_site_label
_atom_site_type_symbol
_atom_site_fract_x
_atom_site_fract_y
_atom_site_fract_z
V1    V   0.18344  0.31929  0.45787
V2    V   0.18344  0.68071  0.54213
V3    V   0.31656  0.18071  0.95787
V4    V   0.31656  0.81929  0.04213
V5    V   0.68344  0.18071  0.54213
V6    V   0.68344  0.81929  0.45787
V7    V   0.81656  0.31929  0.04213
V8    V   0.81656  0.68071  0.95787
E1    E   0.00000  0.31929  0.25000
E2    E   0.00000  0.68071  0.75000
E3    E   0.06656  0.25000  0.00000
E4    E   0.06656  0.75000  0.00000
E5    E   0.18344  0.50000  0.50000
E6    E   0.25000  0.25000  0.20787
E7    E   0.25000  0.25000  0.70787
E8    E   0.25000  0.75000  0.29213
E9    E   0.25000  0.75000  0.79213
E10   E   0.31656  0.00000  0.00000
E11   E   0.43344  0.25000  0.50000
E12   E   0.43344  0.75000  0.50000
E13   E   0.50000  0.18071  0.75000
E14   E   0.50000  0.81929  0.25000
E15   E   0.56656  0.25000  0.00000
E16   E   0.56656  0.75000  0.00000
E17   E   0.68344  0.00000  0.50000
E18   E   0.75000  0.25000  0.29213
E19   E   0.75000  0.25000  0.79213
E20   E   0.75000  0.75000  0.20787
E21   E   0.75000  0.75000  0.70787
E22   E   0.81656  0.50000  0.00000
E23   E   0.93344  0.25000  0.50000
E24   E   0.93344  0.75000  0.50000
loop_
