data_vcd_Fddd:2  hall_number: 336, V_con: 5
_audit_creation_date              2025-03-06
_audit_creation_method            'MOFbuilder_1.0'
_symmetry_space_group_name_H-M    'P1'
_symmetry_Int_Tables_number       1
_symmetry_cell_setting            triclinic
loop_
_symmetry_equiv_pos_as_xyz
  x,y,z
_cell_length_a                    75.2756
_cell_length_b                    31.109900000000003
_cell_length_c                    16.630499999999998
_cell_angle_alpha                 90.0
_cell_angle_beta                  90.0
_cell_angle_gamma                 90.0
loop_
_atom_site_label
_atom_site_type_symbol
_atom_site_fract_x
_atom_site_fract_y
_atom_site_fract_z
V1    V   0.05858  0.28572  0.62500
V2    V   0.05858  0.46428  0.12500
V3    V   0.05858  0.78572  0.12500
V4    V   0.05858  0.96428  0.62500
V5    V   0.19142  0.28572  0.62500
V6    V   0.19142  0.46428  0.12500
V7    V   0.19142  0.78572  0.12500
V8    V   0.19142  0.96428  0.62500
V9    V   0.30858  0.03572  0.87500
V10   V   0.30858  0.21428  0.37500
V11   V   0.30858  0.53572  0.37500
V12   V   0.30858  0.71428  0.87500
V13   V   0.44142  0.03572  0.87500
V14   V   0.44142  0.21428  0.37500
V15   V   0.44142  0.53572  0.37500
V16   V   0.44142  0.71428  0.87500
V17   V   0.55858  0.28572  0.12500
V18   V   0.55858  0.46428  0.62500
V19   V   0.55858  0.78572  0.62500
V20   V   0.55858  0.96428  0.12500
V21   V   0.69142  0.28572  0.12500
V22   V   0.69142  0.46428  0.62500
V23   V   0.69142  0.78572  0.62500
V24   V   0.69142  0.96428  0.12500
V25   V   0.80858  0.03572  0.37500
V26   V   0.80858  0.21428  0.87500
V27   V   0.80858  0.53572  0.87500
V28   V   0.80858  0.71428  0.37500
V29   V   0.94142  0.03572  0.37500
V30   V   0.94142  0.21428  0.87500
V31   V   0.94142  0.53572  0.87500
V32   V   0.94142  0.71428  0.37500
E1    E   0.00000  0.00000  0.50000
E2    E   0.00000  0.25000  0.75000
E3    E   0.00000  0.50000  0.00000
E4    E   0.00000  0.75000  0.25000
E5    E   0.05858  0.12500  0.62500
E6    E   0.05858  0.37500  0.37500
E7    E   0.05858  0.37500  0.87500
E8    E   0.05858  0.62500  0.12500
E9    E   0.05858  0.87500  0.37500
E10   E   0.05858  0.87500  0.87500
E11   E   0.12500  0.28572  0.62500
E12   E   0.12500  0.46428  0.12500
E13   E   0.12500  0.78572  0.12500
E14   E   0.12500  0.96428  0.62500
E15   E   0.19142  0.12500  0.62500
E16   E   0.19142  0.37500  0.37500
E17   E   0.19142  0.37500  0.87500
E18   E   0.19142  0.62500  0.12500
E19   E   0.19142  0.87500  0.37500
E20   E   0.19142  0.87500  0.87500
E21   E   0.25000  0.00000  0.75000
E22   E   0.25000  0.25000  0.50000
E23   E   0.25000  0.50000  0.25000
E24   E   0.25000  0.75000  0.00000
E25   E   0.30858  0.12500  0.12500
E26   E   0.30858  0.12500  0.62500
E27   E   0.30858  0.37500  0.37500
E28   E   0.30858  0.62500  0.12500
E29   E   0.30858  0.62500  0.62500
E30   E   0.30858  0.87500  0.87500
E31   E   0.37500  0.03572  0.87500
E32   E   0.37500  0.21428  0.37500
E33   E   0.37500  0.53572  0.37500
E34   E   0.37500  0.71428  0.87500
E35   E   0.44142  0.12500  0.12500
E36   E   0.44142  0.12500  0.62500
E37   E   0.44142  0.37500  0.37500
E38   E   0.44142  0.62500  0.12500
E39   E   0.44142  0.62500  0.62500
E40   E   0.44142  0.87500  0.87500
E41   E   0.50000  0.00000  0.00000
E42   E   0.50000  0.25000  0.25000
E43   E   0.50000  0.50000  0.50000
E44   E   0.50000  0.75000  0.75000
E45   E   0.55858  0.12500  0.12500
E46   E   0.55858  0.37500  0.37500
E47   E   0.55858  0.37500  0.87500
E48   E   0.55858  0.62500  0.62500
E49   E   0.55858  0.87500  0.37500
E50   E   0.55858  0.87500  0.87500
E51   E   0.62500  0.28572  0.12500
E52   E   0.62500  0.46428  0.62500
E53   E   0.62500  0.78572  0.62500
E54   E   0.62500  0.96428  0.12500
E55   E   0.69142  0.12500  0.12500
E56   E   0.69142  0.37500  0.37500
E57   E   0.69142  0.37500  0.87500
E58   E   0.69142  0.62500  0.62500
E59   E   0.69142  0.87500  0.37500
E60   E   0.69142  0.87500  0.87500
E61   E   0.75000  0.00000  0.25000
E62   E   0.75000  0.25000  0.00000
E63   E   0.75000  0.50000  0.75000
E64   E   0.75000  0.75000  0.50000
E65   E   0.80858  0.12500  0.12500
E66   E   0.80858  0.12500  0.62500
E67   E   0.80858  0.37500  0.87500
E68   E   0.80858  0.62500  0.12500
E69   E   0.80858  0.62500  0.62500
E70   E   0.80858  0.87500  0.37500
E71   E   0.87500  0.03572  0.37500
E72   E   0.87500  0.21428  0.87500
E73   E   0.87500  0.53572  0.87500
E74   E   0.87500  0.71428  0.37500
E75   E   0.94142  0.12500  0.12500
E76   E   0.94142  0.12500  0.62500
E77   E   0.94142  0.37500  0.87500
E78   E   0.94142  0.62500  0.12500
E79   E   0.94142  0.62500  0.62500
E80   E   0.94142  0.87500  0.37500
loop_
