data_vcf_Fddd:2  hall_number: 336, V_con: 6
_audit_creation_date              2025-03-06
_audit_creation_method            'MOFbuilder_1.0'
_symmetry_space_group_name_H-M    'P1'
_symmetry_Int_Tables_number       1
_symmetry_cell_setting            triclinic
loop_
_symmetry_equiv_pos_as_xyz
  x,y,z
_cell_length_a                    26.479
_cell_length_b                    23.543799999999997
_cell_length_c                    55.9776
_cell_angle_alpha                 90.0
_cell_angle_beta                  90.0
_cell_angle_gamma                 90.0
loop_
_atom_site_label
_atom_site_type_symbol
_atom_site_fract_x
_atom_site_fract_y
_atom_site_fract_z
V1    V   0.05823  0.32365  0.04145
V2    V   0.05823  0.42635  0.70855
V3    V   0.05823  0.82365  0.54145
V4    V   0.05823  0.92635  0.20855
V5    V   0.19177  0.32365  0.20855
V6    V   0.19177  0.42635  0.54145
V7    V   0.19177  0.82365  0.70855
V8    V   0.19177  0.92635  0.04145
V9    V   0.30823  0.07365  0.45855
V10   V   0.30823  0.17635  0.79145
V11   V   0.30823  0.57365  0.95855
V12   V   0.30823  0.67635  0.29145
V13   V   0.44177  0.07365  0.29145
V14   V   0.44177  0.17635  0.95855
V15   V   0.44177  0.57365  0.79145
V16   V   0.44177  0.67635  0.45855
V17   V   0.55823  0.32365  0.54145
V18   V   0.55823  0.42635  0.20855
V19   V   0.55823  0.82365  0.04145
V20   V   0.55823  0.92635  0.70855
V21   V   0.69177  0.32365  0.70855
V22   V   0.69177  0.42635  0.04145
V23   V   0.69177  0.82365  0.20855
V24   V   0.69177  0.92635  0.54145
V25   V   0.80823  0.07365  0.95855
V26   V   0.80823  0.17635  0.29145
V27   V   0.80823  0.57365  0.45855
V28   V   0.80823  0.67635  0.79145
V29   V   0.94177  0.07365  0.79145
V30   V   0.94177  0.17635  0.45855
V31   V   0.94177  0.57365  0.29145
V32   V   0.94177  0.67635  0.95855
E1    E   0.00000  0.00000  0.50000
E2    E   0.00000  0.25000  0.75000
E3    E   0.00000  0.50000  0.00000
E4    E   0.00000  0.75000  0.25000
E5    E   0.06677  0.30135  0.50000
E6    E   0.06677  0.44865  0.25000
E7    E   0.06677  0.80135  0.00000
E8    E   0.06677  0.94865  0.75000
E9    E   0.12500  0.12500  0.04145
E10   E   0.12500  0.12500  0.20855
E11   E   0.12500  0.12500  0.45855
E12   E   0.12500  0.12500  0.79145
E13   E   0.12500  0.32365  0.12500
E14   E   0.12500  0.42635  0.62500
E15   E   0.12500  0.62500  0.29145
E16   E   0.12500  0.62500  0.54145
E17   E   0.12500  0.62500  0.70855
E18   E   0.12500  0.62500  0.95855
E19   E   0.12500  0.82365  0.62500
E20   E   0.12500  0.92635  0.12500
E21   E   0.18323  0.30135  0.75000
E22   E   0.18323  0.44865  0.00000
E23   E   0.18323  0.80135  0.25000
E24   E   0.18323  0.94865  0.50000
E25   E   0.25000  0.00000  0.75000
E26   E   0.25000  0.25000  0.50000
E27   E   0.25000  0.50000  0.25000
E28   E   0.25000  0.75000  0.00000
E29   E   0.31677  0.05135  0.00000
E30   E   0.31677  0.19865  0.25000
E31   E   0.31677  0.55135  0.50000
E32   E   0.31677  0.69865  0.75000
E33   E   0.37500  0.07365  0.37500
E34   E   0.37500  0.17635  0.87500
E35   E   0.37500  0.37500  0.20855
E36   E   0.37500  0.37500  0.54145
E37   E   0.37500  0.37500  0.79145
E38   E   0.37500  0.37500  0.95855
E39   E   0.37500  0.57365  0.87500
E40   E   0.37500  0.67635  0.37500
E41   E   0.37500  0.87500  0.04145
E42   E   0.37500  0.87500  0.29145
E43   E   0.37500  0.87500  0.45855
E44   E   0.37500  0.87500  0.70855
E45   E   0.43323  0.05135  0.75000
E46   E   0.43323  0.19865  0.50000
E47   E   0.43323  0.55135  0.25000
E48   E   0.43323  0.69865  0.00000
E49   E   0.50000  0.00000  0.00000
E50   E   0.50000  0.25000  0.25000
E51   E   0.50000  0.50000  0.50000
E52   E   0.50000  0.75000  0.75000
E53   E   0.56677  0.30135  0.00000
E54   E   0.56677  0.44865  0.75000
E55   E   0.56677  0.80135  0.50000
E56   E   0.56677  0.94865  0.25000
E57   E   0.62500  0.12500  0.29145
E58   E   0.62500  0.12500  0.54145
E59   E   0.62500  0.12500  0.70855
E60   E   0.62500  0.12500  0.95855
E61   E   0.62500  0.32365  0.62500
E62   E   0.62500  0.42635  0.12500
E63   E   0.62500  0.62500  0.04145
E64   E   0.62500  0.62500  0.20855
E65   E   0.62500  0.62500  0.45855
E66   E   0.62500  0.62500  0.79145
E67   E   0.62500  0.82365  0.12500
E68   E   0.62500  0.92635  0.62500
E69   E   0.68323  0.30135  0.25000
E70   E   0.68323  0.44865  0.50000
E71   E   0.68323  0.80135  0.75000
E72   E   0.68323  0.94865  0.00000
E73   E   0.75000  0.00000  0.25000
E74   E   0.75000  0.25000  0.00000
E75   E   0.75000  0.50000  0.75000
E76   E   0.75000  0.75000  0.50000
E77   E   0.81677  0.05135  0.50000
E78   E   0.81677  0.19865  0.75000
E79   E   0.81677  0.55135  0.00000
E80   E   0.81677  0.69865  0.25000
E81   E   0.87500  0.07365  0.87500
E82   E   0.87500  0.17635  0.37500
E83   E   0.87500  0.37500  0.04145
E84   E   0.87500  0.37500  0.29145
E85   E   0.87500  0.37500  0.45855
E86   E   0.87500  0.37500  0.70855
E87   E   0.87500  0.57365  0.37500
E88   E   0.87500  0.67635  0.87500
E89   E   0.87500  0.87500  0.20855
E90   E   0.87500  0.87500  0.54145
E91   E   0.87500  0.87500  0.79145
E92   E   0.87500  0.87500  0.95855
E93   E   0.93323  0.05135  0.25000
E94   E   0.93323  0.19865  0.00000
E95   E   0.93323  0.55135  0.75000
E96   E   0.93323  0.69865  0.50000
loop_
