data_vcg_Ibam  hall_number: 338, V_con: 7
_audit_creation_date              2025-03-06
_audit_creation_method            'MOFbuilder_1.0'
_symmetry_space_group_name_H-M    'P1'
_symmetry_Int_Tables_number       1
_symmetry_cell_setting            triclinic
loop_
_symmetry_equiv_pos_as_xyz
  x,y,z
_cell_length_a                    18.366
_cell_length_b                    24.6932
_cell_length_c                    16.7755
_cell_angle_alpha                 90.0
_cell_angle_beta                  90.0
_cell_angle_gamma                 90.0
loop_
_atom_site_label
_atom_site_type_symbol
_atom_site_fract_x
_atom_site_fract_y
_atom_site_fract_z
V1    V   0.14823  0.33016  0.50000
V2    V   0.14823  0.66984  0.00000
V3    V   0.35177  0.16984  0.00000
V4    V   0.35177  0.83016  0.50000
V5    V   0.64823  0.16984  0.50000
V6    V   0.64823  0.83016  0.00000
V7    V   0.85177  0.33016  0.00000
V8    V   0.85177  0.66984  0.50000
E1    E   0.00000  0.33016  0.25000
E2    E   0.00000  0.33016  0.75000
E3    E   0.00000  0.50000  0.00000
E4    E   0.00000  0.50000  0.50000
E5    E   0.00000  0.66984  0.25000
E6    E   0.00000  0.66984  0.75000
E7    E   0.10177  0.25000  0.00000
E8    E   0.10177  0.75000  0.50000
E9    E   0.25000  0.25000  0.25000
E10   E   0.25000  0.25000  0.75000
E11   E   0.25000  0.75000  0.25000
E12   E   0.25000  0.75000  0.75000
E13   E   0.39823  0.25000  0.50000
E14   E   0.39823  0.75000  0.00000
E15   E   0.50000  0.00000  0.00000
E16   E   0.50000  0.00000  0.50000
E17   E   0.50000  0.16984  0.25000
E18   E   0.50000  0.16984  0.75000
E19   E   0.50000  0.83016  0.25000
E20   E   0.50000  0.83016  0.75000
E21   E   0.60177  0.25000  0.00000
E22   E   0.60177  0.75000  0.50000
E23   E   0.75000  0.25000  0.25000
E24   E   0.75000  0.25000  0.75000
E25   E   0.75000  0.75000  0.25000
E26   E   0.75000  0.75000  0.75000
E27   E   0.89823  0.25000  0.50000
E28   E   0.89823  0.75000  0.00000
loop_
