data_vci_Cmca  hall_number: 304, V_con: 7
_audit_creation_date              2025-03-06
_audit_creation_method            'MOFbuilder_1.0'
_symmetry_space_group_name_H-M    'P1'
_symmetry_Int_Tables_number       1
_symmetry_cell_setting            triclinic
loop_
_symmetry_equiv_pos_as_xyz
  x,y,z
_cell_length_a                    39.348800000000004
_cell_length_b                    36.701299999999996
_cell_length_c                    10.0
_cell_angle_alpha                 90.0
_cell_angle_beta                  90.0
_cell_angle_gamma                 90.0
loop_
_atom_site_label
_atom_site_type_symbol
_atom_site_fract_x
_atom_site_fract_y
_atom_site_fract_z
V1    V   0.12707  0.13202  0.12347
V2    V   0.12707  0.36798  0.62347
V3    V   0.12707  0.63202  0.37653
V4    V   0.12707  0.86798  0.87653
V5    V   0.37293  0.13202  0.37653
V6    V   0.37293  0.36798  0.87653
V7    V   0.37293  0.63202  0.12347
V8    V   0.37293  0.86798  0.62347
V9    V   0.62707  0.13202  0.37653
V10   V   0.62707  0.36798  0.87653
V11   V   0.62707  0.63202  0.12347
V12   V   0.62707  0.86798  0.62347
V13   V   0.87293  0.13202  0.12347
V14   V   0.87293  0.36798  0.62347
V15   V   0.87293  0.63202  0.37653
V16   V   0.87293  0.86798  0.87653
E1    E   0.00000  0.13202  0.12347
E2    E   0.00000  0.36798  0.62347
E3    E   0.00000  0.63202  0.37653
E4    E   0.00000  0.86798  0.87653
E5    E   0.12707  0.00000  0.00000
E6    E   0.12707  0.13202  0.62347
E7    E   0.12707  0.25000  0.37347
E8    E   0.12707  0.25000  0.87347
E9    E   0.12707  0.36798  0.12347
E10   E   0.12707  0.50000  0.50000
E11   E   0.12707  0.63202  0.87653
E12   E   0.12707  0.75000  0.12653
E13   E   0.12707  0.75000  0.62653
E14   E   0.12707  0.86798  0.37653
E15   E   0.25000  0.13202  0.25000
E16   E   0.25000  0.36798  0.75000
E17   E   0.25000  0.63202  0.25000
E18   E   0.25000  0.86798  0.75000
E19   E   0.37293  0.00000  0.50000
E20   E   0.37293  0.13202  0.87653
E21   E   0.37293  0.25000  0.12653
E22   E   0.37293  0.25000  0.62653
E23   E   0.37293  0.36798  0.37653
E24   E   0.37293  0.50000  0.00000
E25   E   0.37293  0.63202  0.62347
E26   E   0.37293  0.75000  0.37347
E27   E   0.37293  0.75000  0.87347
E28   E   0.37293  0.86798  0.12347
E29   E   0.50000  0.13202  0.37653
E30   E   0.50000  0.36798  0.87653
E31   E   0.50000  0.63202  0.12347
E32   E   0.50000  0.86798  0.62347
E33   E   0.62707  0.00000  0.50000
E34   E   0.62707  0.13202  0.87653
E35   E   0.62707  0.25000  0.12653
E36   E   0.62707  0.25000  0.62653
E37   E   0.62707  0.36798  0.37653
E38   E   0.62707  0.50000  0.00000
E39   E   0.62707  0.63202  0.62347
E40   E   0.62707  0.75000  0.37347
E41   E   0.62707  0.75000  0.87347
E42   E   0.62707  0.86798  0.12347
E43   E   0.75000  0.13202  0.25000
E44   E   0.75000  0.36798  0.75000
E45   E   0.75000  0.63202  0.25000
E46   E   0.75000  0.86798  0.75000
E47   E   0.87293  0.00000  0.00000
E48   E   0.87293  0.13202  0.62347
E49   E   0.87293  0.25000  0.37347
E50   E   0.87293  0.25000  0.87347
E51   E   0.87293  0.36798  0.12347
E52   E   0.87293  0.50000  0.50000
E53   E   0.87293  0.63202  0.87653
E54   E   0.87293  0.75000  0.12653
E55   E   0.87293  0.75000  0.62653
E56   E   0.87293  0.86798  0.37653
loop_
