data_vcp_Ccca:2  hall_number: 325, V_con: 7
_audit_creation_date              2025-03-06
_audit_creation_method            'MOFbuilder_1.0'
_symmetry_space_group_name_H-M    'P1'
_symmetry_Int_Tables_number       1
_symmetry_cell_setting            triclinic
loop_
_symmetry_equiv_pos_as_xyz
  x,y,z
_cell_length_a                    38.0839
_cell_length_b                    19.1133
_cell_length_c                    19.4971
_cell_angle_alpha                 90.0
_cell_angle_beta                  90.0
_cell_angle_gamma                 90.0
loop_
_atom_site_label
_atom_site_type_symbol
_atom_site_fract_x
_atom_site_fract_y
_atom_site_fract_z
V1    V   0.12201  0.05829  0.42448
V2    V   0.12201  0.44171  0.92448
V3    V   0.12201  0.55829  0.57552
V4    V   0.12201  0.94171  0.07552
V5    V   0.37799  0.05829  0.07552
V6    V   0.37799  0.44171  0.57552
V7    V   0.37799  0.55829  0.92448
V8    V   0.37799  0.94171  0.42448
V9    V   0.62201  0.05829  0.57552
V10   V   0.62201  0.44171  0.07552
V11   V   0.62201  0.55829  0.42448
V12   V   0.62201  0.94171  0.92448
V13   V   0.87799  0.05829  0.92448
V14   V   0.87799  0.44171  0.42448
V15   V   0.87799  0.55829  0.07552
V16   V   0.87799  0.94171  0.57552
E1    E   0.00000  0.00000  0.00000
E2    E   0.00000  0.00000  0.50000
E3    E   0.00000  0.50000  0.00000
E4    E   0.00000  0.50000  0.50000
E5    E   0.12201  0.00000  0.17448
E6    E   0.12201  0.00000  0.32552
E7    E   0.12201  0.19171  0.00000
E8    E   0.12201  0.25000  0.25000
E9    E   0.12201  0.25000  0.75000
E10   E   0.12201  0.30829  0.50000
E11   E   0.12201  0.50000  0.67448
E12   E   0.12201  0.50000  0.82552
E13   E   0.12201  0.69171  0.00000
E14   E   0.12201  0.75000  0.25000
E15   E   0.12201  0.75000  0.75000
E16   E   0.12201  0.80829  0.50000
E17   E   0.25000  0.00000  0.07552
E18   E   0.25000  0.00000  0.42448
E19   E   0.25000  0.50000  0.57552
E20   E   0.25000  0.50000  0.92448
E21   E   0.37799  0.00000  0.17448
E22   E   0.37799  0.00000  0.32552
E23   E   0.37799  0.19171  0.50000
E24   E   0.37799  0.25000  0.25000
E25   E   0.37799  0.25000  0.75000
E26   E   0.37799  0.30829  0.00000
E27   E   0.37799  0.50000  0.67448
E28   E   0.37799  0.50000  0.82552
E29   E   0.37799  0.69171  0.50000
E30   E   0.37799  0.75000  0.25000
E31   E   0.37799  0.75000  0.75000
E32   E   0.37799  0.80829  0.00000
E33   E   0.50000  0.00000  0.00000
E34   E   0.50000  0.00000  0.50000
E35   E   0.50000  0.50000  0.00000
E36   E   0.50000  0.50000  0.50000
E37   E   0.62201  0.00000  0.67448
E38   E   0.62201  0.00000  0.82552
E39   E   0.62201  0.19171  0.00000
E40   E   0.62201  0.25000  0.25000
E41   E   0.62201  0.25000  0.75000
E42   E   0.62201  0.30829  0.50000
E43   E   0.62201  0.50000  0.17448
E44   E   0.62201  0.50000  0.32552
E45   E   0.62201  0.69171  0.00000
E46   E   0.62201  0.75000  0.25000
E47   E   0.62201  0.75000  0.75000
E48   E   0.62201  0.80829  0.50000
E49   E   0.75000  0.00000  0.57552
E50   E   0.75000  0.00000  0.92448
E51   E   0.75000  0.50000  0.07552
E52   E   0.75000  0.50000  0.42448
E53   E   0.87799  0.00000  0.67448
E54   E   0.87799  0.00000  0.82552
E55   E   0.87799  0.19171  0.50000
E56   E   0.87799  0.25000  0.25000
E57   E   0.87799  0.25000  0.75000
E58   E   0.87799  0.30829  0.00000
E59   E   0.87799  0.50000  0.17448
E60   E   0.87799  0.50000  0.32552
E61   E   0.87799  0.69171  0.50000
E62   E   0.87799  0.75000  0.25000
E63   E   0.87799  0.75000  0.75000
E64   E   0.87799  0.80829  0.00000
loop_
