data_vcq_Cmca  hall_number: 304, V_con: 7
_audit_creation_date              2025-03-06
_audit_creation_method            'MOFbuilder_1.0'
_symmetry_space_group_name_H-M    'P1'
_symmetry_Int_Tables_number       1
_symmetry_cell_setting            triclinic
loop_
_symmetry_equiv_pos_as_xyz
  x,y,z
_cell_length_a                    39.5529
_cell_length_b                    19.5531
_cell_length_c                    19.035800000000002
_cell_angle_alpha                 90.0
_cell_angle_beta                  90.0
_cell_angle_gamma                 90.0
loop_
_atom_site_label
_atom_site_type_symbol
_atom_site_fract_x
_atom_site_fract_y
_atom_site_fract_z
V1    V   0.12641  0.17156  0.80523
V2    V   0.12641  0.32844  0.30523
V3    V   0.12641  0.67156  0.69477
V4    V   0.12641  0.82844  0.19477
V5    V   0.37359  0.17156  0.69477
V6    V   0.37359  0.32844  0.19477
V7    V   0.37359  0.67156  0.80523
V8    V   0.37359  0.82844  0.30523
V9    V   0.62641  0.17156  0.69477
V10   V   0.62641  0.32844  0.19477
V11   V   0.62641  0.67156  0.80523
V12   V   0.62641  0.82844  0.30523
V13   V   0.87359  0.17156  0.80523
V14   V   0.87359  0.32844  0.30523
V15   V   0.87359  0.67156  0.69477
V16   V   0.87359  0.82844  0.19477
E1    E   0.00000  0.17156  0.80523
E2    E   0.00000  0.32844  0.30523
E3    E   0.00000  0.67156  0.69477
E4    E   0.00000  0.82844  0.19477
E5    E   0.12641  0.00000  0.00000
E6    E   0.12641  0.07844  0.25000
E7    E   0.12641  0.25000  0.05523
E8    E   0.12641  0.25000  0.55523
E9    E   0.12641  0.42156  0.75000
E10   E   0.12641  0.50000  0.50000
E11   E   0.12641  0.57844  0.25000
E12   E   0.12641  0.75000  0.44477
E13   E   0.12641  0.75000  0.94477
E14   E   0.12641  0.92156  0.75000
E15   E   0.25000  0.17156  0.75000
E16   E   0.25000  0.32844  0.25000
E17   E   0.25000  0.67156  0.75000
E18   E   0.25000  0.82844  0.25000
E19   E   0.37359  0.00000  0.50000
E20   E   0.37359  0.07844  0.25000
E21   E   0.37359  0.25000  0.44477
E22   E   0.37359  0.25000  0.94477
E23   E   0.37359  0.42156  0.75000
E24   E   0.37359  0.50000  0.00000
E25   E   0.37359  0.57844  0.25000
E26   E   0.37359  0.75000  0.05523
E27   E   0.37359  0.75000  0.55523
E28   E   0.37359  0.92156  0.75000
E29   E   0.50000  0.17156  0.69477
E30   E   0.50000  0.32844  0.19477
E31   E   0.50000  0.67156  0.80523
E32   E   0.50000  0.82844  0.30523
E33   E   0.62641  0.00000  0.50000
E34   E   0.62641  0.07844  0.25000
E35   E   0.62641  0.25000  0.44477
E36   E   0.62641  0.25000  0.94477
E37   E   0.62641  0.42156  0.75000
E38   E   0.62641  0.50000  0.00000
E39   E   0.62641  0.57844  0.25000
E40   E   0.62641  0.75000  0.05523
E41   E   0.62641  0.75000  0.55523
E42   E   0.62641  0.92156  0.75000
E43   E   0.75000  0.17156  0.75000
E44   E   0.75000  0.32844  0.25000
E45   E   0.75000  0.67156  0.75000
E46   E   0.75000  0.82844  0.25000
E47   E   0.87359  0.00000  0.00000
E48   E   0.87359  0.07844  0.25000
E49   E   0.87359  0.25000  0.05523
E50   E   0.87359  0.25000  0.55523
E51   E   0.87359  0.42156  0.75000
E52   E   0.87359  0.50000  0.50000
E53   E   0.87359  0.57844  0.25000
E54   E   0.87359  0.75000  0.44477
E55   E   0.87359  0.75000  0.94477
E56   E   0.87359  0.92156  0.75000
loop_
