data_vcu_Pbcn  hall_number: 284, V_con: 8
_audit_creation_date              2025-03-06
_audit_creation_method            'MOFbuilder_1.0'
_symmetry_space_group_name_H-M    'P1'
_symmetry_Int_Tables_number       1
_symmetry_cell_setting            triclinic
loop_
_symmetry_equiv_pos_as_xyz
  x,y,z
_cell_length_a                    10.0
_cell_length_b                    19.360599999999998
_cell_length_c                    34.8644
_cell_angle_alpha                 90.0
_cell_angle_beta                  90.0
_cell_angle_gamma                 90.0
loop_
_atom_site_label
_atom_site_type_symbol
_atom_site_fract_x
_atom_site_fract_y
_atom_site_fract_z
V1    V   0.12458  0.15007  0.88889
V2    V   0.12458  0.84993  0.38889
V3    V   0.37542  0.34993  0.38889
V4    V   0.37542  0.65007  0.88889
V5    V   0.62458  0.34993  0.11111
V6    V   0.62458  0.65007  0.61111
V7    V   0.87542  0.15007  0.61111
V8    V   0.87542  0.84993  0.11111
E1    E   0.00000  0.00000  0.00000
E2    E   0.00000  0.00000  0.50000
E3    E   0.00000  0.15007  0.75000
E4    E   0.00000  0.84993  0.25000
E5    E   0.12458  0.34993  0.11111
E6    E   0.12458  0.65007  0.61111
E7    E   0.12542  0.25000  0.50000
E8    E   0.12542  0.75000  0.00000
E9    E   0.25000  0.09993  0.38889
E10   E   0.25000  0.40007  0.88889
E11   E   0.25000  0.59993  0.38889
E12   E   0.25000  0.90007  0.88889
E13   E   0.37458  0.25000  0.00000
E14   E   0.37458  0.75000  0.50000
E15   E   0.37542  0.15007  0.61111
E16   E   0.37542  0.84993  0.11111
E17   E   0.50000  0.34993  0.25000
E18   E   0.50000  0.50000  0.00000
E19   E   0.50000  0.50000  0.50000
E20   E   0.50000  0.65007  0.75000
E21   E   0.62458  0.15007  0.88889
E22   E   0.62458  0.84993  0.38889
E23   E   0.62542  0.25000  0.50000
E24   E   0.62542  0.75000  0.00000
E25   E   0.75000  0.09993  0.11111
E26   E   0.75000  0.40007  0.61111
E27   E   0.75000  0.59993  0.11111
E28   E   0.75000  0.90007  0.61111
E29   E   0.87458  0.25000  0.00000
E30   E   0.87458  0.75000  0.50000
E31   E   0.87542  0.34993  0.38889
E32   E   0.87542  0.65007  0.88889
loop_
