data_vfi_P63/mcm  hall_number: 487, V_con: 4, EC_con: 4
_audit_creation_date              2025-03-06
_audit_creation_method            'MOFbuilder_1.0'
_symmetry_space_group_name_H-M    'P1'
_symmetry_Int_Tables_number       1
_symmetry_cell_setting            triclinic
loop_
_symmetry_equiv_pos_as_xyz
  x,y,z
_cell_length_a                    60.918099999999995
_cell_length_b                    60.918099999999995
_cell_length_c                    26.689500000000002
_cell_angle_alpha                 90.0
_cell_angle_beta                  90.0
_cell_angle_gamma                 120.0
loop_
_atom_site_label
_atom_site_type_symbol
_atom_site_fract_x
_atom_site_fract_y
_atom_site_fract_z
V1    V   0.17864  0.51197  0.56266
V2    V   0.17864  0.51197  0.93734
V3    V   0.17864  0.66667  0.06266
V4    V   0.17864  0.66667  0.43734
V5    V   0.33333  0.51197  0.06266
V6    V   0.33333  0.51197  0.43734
V7    V   0.33333  0.82136  0.56266
V8    V   0.33333  0.82136  0.93734
V9    V   0.48803  0.66667  0.56266
V10   V   0.48803  0.66667  0.93734
V11   V   0.48803  0.82136  0.06266
V12   V   0.48803  0.82136  0.43734
V13   V   0.51197  0.17864  0.56266
V14   V   0.51197  0.17864  0.93734
V15   V   0.51197  0.33333  0.06266
V16   V   0.51197  0.33333  0.43734
V17   V   0.66667  0.17864  0.06266
V18   V   0.66667  0.17864  0.43734
V19   V   0.66667  0.48803  0.56266
V20   V   0.66667  0.48803  0.93734
V21   V   0.82136  0.33333  0.56266
V22   V   0.82136  0.33333  0.93734
V23   V   0.82136  0.48803  0.06266
V24   V   0.82136  0.48803  0.43734
EC1    EC   0.00000  0.42265  0.06266
EC2    EC   0.00000  0.42265  0.43734
EC3    EC   0.00000  0.57735  0.56266
EC4    EC   0.00000  0.57735  0.93734
EC5    EC   0.42265  0.00000  0.06266
EC6    EC   0.42265  0.00000  0.43734
EC7    EC   0.42265  0.42265  0.56266
EC8    EC   0.42265  0.42265  0.93734
EC9    EC   0.57735  0.00000  0.56266
EC10   EC   0.57735  0.00000  0.93734
EC11   EC   0.57735  0.57735  0.06266
EC12   EC   0.57735  0.57735  0.43734
E1    E   0.00000  0.42265  0.25000
E2    E   0.00000  0.50000  0.00000
E3    E   0.00000  0.50000  0.50000
E4    E   0.00000  0.57735  0.75000
E5    E   0.08932  0.46731  0.00000
E6    E   0.08932  0.46731  0.50000
E7    E   0.08932  0.62201  0.00000
E8    E   0.08932  0.62201  0.50000
E9    E   0.17864  0.58932  0.00000
E10   E   0.17864  0.58932  0.50000
E11   E   0.17864  0.58932  0.00000
E12   E   0.17864  0.58932  0.50000
E13   E   0.17864  0.51197  0.75000
E14   E   0.17864  0.66667  0.25000
E15   E   0.25598  0.51197  0.00000
E16   E   0.25598  0.51197  0.50000
E17   E   0.25598  0.74401  0.00000
E18   E   0.25598  0.74401  0.50000
E19   E   0.25599  0.51197  0.00000
E20   E   0.25599  0.51197  0.50000
E21   E   0.25599  0.74402  0.00000
E22   E   0.25599  0.74402  0.50000
E23   E   0.33333  0.51197  0.25000
E24   E   0.33333  0.82136  0.75000
E25   E   0.37799  0.46731  0.00000
E26   E   0.37799  0.46731  0.50000
E27   E   0.37799  0.91068  0.00000
E28   E   0.37799  0.91068  0.50000
E29   E   0.41068  0.58932  0.00000
E30   E   0.41068  0.58932  0.50000
E31   E   0.41068  0.82136  0.00000
E32   E   0.41068  0.82136  0.50000
E33   E   0.41068  0.58932  0.00000
E34   E   0.41068  0.58932  0.50000
E35   E   0.41068  0.82136  0.00000
E36   E   0.41068  0.82136  0.50000
E37   E   0.42265  0.00000  0.25000
E38   E   0.42265  0.42265  0.75000
E39   E   0.46731  0.08932  0.00000
E40   E   0.46731  0.08932  0.50000
E41   E   0.46731  0.37799  0.00000
E42   E   0.46731  0.37799  0.50000
E43   E   0.48803  0.66667  0.75000
E44   E   0.48803  0.74401  0.00000
E45   E   0.48803  0.74401  0.50000
E46   E   0.48803  0.74402  0.00000
E47   E   0.48803  0.74402  0.50000
E48   E   0.48803  0.82136  0.25000
E49   E   0.50000  0.00000  0.00000
E50   E   0.50000  0.00000  0.50000
E51   E   0.50000  0.50000  0.00000
E52   E   0.50000  0.50000  0.50000
E53   E   0.51197  0.17864  0.75000
E54   E   0.51197  0.25598  0.00000
E55   E   0.51197  0.25598  0.50000
E56   E   0.51197  0.25599  0.00000
E57   E   0.51197  0.25599  0.50000
E58   E   0.51197  0.33333  0.25000
E59   E   0.53269  0.62201  0.00000
E60   E   0.53269  0.62201  0.50000
E61   E   0.53269  0.91068  0.00000
E62   E   0.53269  0.91068  0.50000
E63   E   0.57735  0.00000  0.75000
E64   E   0.57735  0.57735  0.25000
E65   E   0.58932  0.17864  0.00000
E66   E   0.58932  0.17864  0.50000
E67   E   0.58932  0.41068  0.00000
E68   E   0.58932  0.41068  0.50000
E69   E   0.58932  0.17864  0.00000
E70   E   0.58932  0.17864  0.50000
E71   E   0.58932  0.41068  0.00000
E72   E   0.58932  0.41068  0.50000
E73   E   0.62201  0.08932  0.00000
E74   E   0.62201  0.08932  0.50000
E75   E   0.62201  0.53269  0.00000
E76   E   0.62201  0.53269  0.50000
E77   E   0.66667  0.17864  0.25000
E78   E   0.66667  0.48803  0.75000
E79   E   0.74401  0.25598  0.00000
E80   E   0.74401  0.25598  0.50000
E81   E   0.74401  0.48803  0.00000
E82   E   0.74401  0.48803  0.50000
E83   E   0.74402  0.25599  0.00000
E84   E   0.74402  0.25599  0.50000
E85   E   0.74402  0.48803  0.00000
E86   E   0.74402  0.48803  0.50000
E87   E   0.82136  0.33333  0.75000
E88   E   0.82136  0.48803  0.25000
E89   E   0.82136  0.41068  0.00000
E90   E   0.82136  0.41068  0.50000
E91   E   0.82136  0.41068  0.00000
E92   E   0.82136  0.41068  0.50000
E93   E   0.91068  0.37799  0.00000
E94   E   0.91068  0.37799  0.50000
E95   E   0.91068  0.53269  0.00000
E96   E   0.91068  0.53269  0.50000
loop_
