data_vma_C12/c1  hall_number: 107, V_con: 5
_audit_creation_date              2025-03-06
_audit_creation_method            'MOFbuilder_1.0'
_symmetry_space_group_name_H-M    'P1'
_symmetry_Int_Tables_number       1
_symmetry_cell_setting            triclinic
loop_
_symmetry_equiv_pos_as_xyz
  x,y,z
_cell_length_a                    24.435
_cell_length_b                    16.0325
_cell_length_c                    23.9615
_cell_angle_alpha                 90.0
_cell_angle_beta                  102.6587
_cell_angle_gamma                 90.0
loop_
_atom_site_label
_atom_site_type_symbol
_atom_site_fract_x
_atom_site_fract_y
_atom_site_fract_z
V1    V   0.15647  0.12480  0.85398
V2    V   0.15647  0.37520  0.14602
V3    V   0.34353  0.12480  0.35398
V4    V   0.34353  0.37520  0.64602
V5    V   0.65647  0.62480  0.35398
V6    V   0.65647  0.87520  0.64602
V7    V   0.84353  0.62480  0.85398
V8    V   0.84353  0.87520  0.14602
E1    E   0.00000  0.00000  0.00000
E2    E   0.00000  0.12480  0.75000
E3    E   0.00000  0.37520  0.25000
E4    E   0.00000  0.50000  0.00000
E5    E   0.00000  0.62480  0.75000
E6    E   0.00000  0.87520  0.25000
E7    E   0.25000  0.25000  0.00000
E8    E   0.25000  0.25000  0.50000
E9    E   0.25000  0.62520  0.25000
E10   E   0.25000  0.62520  0.75000
E11   E   0.25000  0.87480  0.25000
E12   E   0.25000  0.87480  0.75000
E13   E   0.50000  0.00000  0.50000
E14   E   0.50000  0.12480  0.25000
E15   E   0.50000  0.37520  0.75000
E16   E   0.50000  0.50000  0.50000
E17   E   0.50000  0.62480  0.25000
E18   E   0.50000  0.87520  0.75000
E19   E   0.75000  0.12520  0.25000
E20   E   0.75000  0.12520  0.75000
E21   E   0.75000  0.37480  0.25000
E22   E   0.75000  0.37480  0.75000
E23   E   0.75000  0.75000  0.00000
E24   E   0.75000  0.75000  0.50000
loop_
