data_vmd_C12/c1  hall_number: 107, V_con: 6
_audit_creation_date              2025-03-06
_audit_creation_method            'MOFbuilder_1.0'
_symmetry_space_group_name_H-M    'P1'
_symmetry_Int_Tables_number       1
_symmetry_cell_setting            triclinic
loop_
_symmetry_equiv_pos_as_xyz
  x,y,z
_cell_length_a                    29.479000000000003
_cell_length_b                    17.0781
_cell_length_c                    19.1327
_cell_angle_alpha                 90.0
_cell_angle_beta                  100.498
_cell_angle_gamma                 90.0
loop_
_atom_site_label
_atom_site_type_symbol
_atom_site_fract_x
_atom_site_fract_y
_atom_site_fract_z
V1    V   0.17250  0.08528  0.70311
V2    V   0.17250  0.41472  0.29689
V3    V   0.32750  0.08528  0.20311
V4    V   0.32750  0.41472  0.79689
V5    V   0.67250  0.58528  0.20311
V6    V   0.67250  0.91472  0.79689
V7    V   0.82750  0.58528  0.70311
V8    V   0.82750  0.91472  0.29689
E1    E   0.00000  0.08528  0.75000
E2    E   0.00000  0.41472  0.25000
E3    E   0.00000  0.58528  0.75000
E4    E   0.00000  0.91472  0.25000
E5    E   0.17250  0.00000  0.95311
E6    E   0.17250  0.50000  0.04689
E7    E   0.25000  0.16472  0.25000
E8    E   0.25000  0.16472  0.75000
E9    E   0.25000  0.25000  0.00000
E10   E   0.25000  0.25000  0.50000
E11   E   0.25000  0.33528  0.25000
E12   E   0.25000  0.33528  0.75000
E13   E   0.32750  0.00000  0.45311
E14   E   0.32750  0.50000  0.54689
E15   E   0.50000  0.08528  0.25000
E16   E   0.50000  0.41472  0.75000
E17   E   0.50000  0.58528  0.25000
E18   E   0.50000  0.91472  0.75000
E19   E   0.67250  0.00000  0.54689
E20   E   0.67250  0.50000  0.45311
E21   E   0.75000  0.66472  0.25000
E22   E   0.75000  0.66472  0.75000
E23   E   0.75000  0.75000  0.00000
E24   E   0.75000  0.75000  0.50000
E25   E   0.75000  0.83528  0.25000
E26   E   0.75000  0.83528  0.75000
E27   E   0.82750  0.00000  0.04689
E28   E   0.82750  0.50000  0.95311
loop_
