data_vmf_C12/m1  hall_number: 71, V_con: 6
_audit_creation_date              2025-03-06
_audit_creation_method            'MOFbuilder_1.0'
_symmetry_space_group_name_H-M    'P1'
_symmetry_Int_Tables_number       1
_symmetry_cell_setting            triclinic
loop_
_symmetry_equiv_pos_as_xyz
  x,y,z
_cell_length_a                    18.587
_cell_length_b                    27.383899999999997
_cell_length_c                    18.1467
_cell_angle_alpha                 90.0
_cell_angle_beta                  102.4075
_cell_angle_gamma                 90.0
loop_
_atom_site_label
_atom_site_type_symbol
_atom_site_fract_x
_atom_site_fract_y
_atom_site_fract_z
V1    V   0.19461  0.31741  0.23781
V2    V   0.19461  0.68259  0.76219
V3    V   0.30539  0.18259  0.26219
V4    V   0.30539  0.81741  0.73781
V5    V   0.69461  0.18259  0.26219
V6    V   0.69461  0.81741  0.73781
V7    V   0.80539  0.31741  0.23781
V8    V   0.80539  0.68259  0.76219
E1    E   0.00000  0.31741  0.00000
E2    E   0.00000  0.68259  0.00000
E3    E   0.05539  0.25000  0.26219
E4    E   0.05539  0.75000  0.73781
E5    E   0.19461  0.50000  0.23781
E6    E   0.19461  0.50000  0.76219
E7    E   0.25000  0.25000  0.00000
E8    E   0.25000  0.25000  0.50000
E9    E   0.25000  0.75000  0.00000
E10   E   0.25000  0.75000  0.50000
E11   E   0.30539  0.00000  0.26219
E12   E   0.30539  0.00000  0.73781
E13   E   0.44461  0.25000  0.23781
E14   E   0.44461  0.75000  0.76219
E15   E   0.50000  0.18259  0.50000
E16   E   0.50000  0.81741  0.50000
E17   E   0.55539  0.25000  0.23781
E18   E   0.55539  0.75000  0.76219
E19   E   0.69461  0.00000  0.26219
E20   E   0.69461  0.00000  0.73781
E21   E   0.75000  0.25000  0.00000
E22   E   0.75000  0.25000  0.50000
E23   E   0.75000  0.75000  0.00000
E24   E   0.75000  0.75000  0.50000
E25   E   0.80539  0.50000  0.23781
E26   E   0.80539  0.50000  0.76219
E27   E   0.94461  0.25000  0.26219
E28   E   0.94461  0.75000  0.73781
loop_
