data_vmi_I12/a1  hall_number: 107, V_con: 6
_audit_creation_date              2025-03-06
_audit_creation_method            'MOFbuilder_1.0'
_symmetry_space_group_name_H-M    'P1'
_symmetry_Int_Tables_number       1
_symmetry_cell_setting            triclinic
loop_
_symmetry_equiv_pos_as_xyz
  x,y,z
_cell_length_a                    17.9067
_cell_length_b                    28.397100000000002
_cell_length_c                    19.4891
_cell_angle_alpha                 90.0
_cell_angle_beta                  110.9713
_cell_angle_gamma                 90.0
loop_
_atom_site_label
_atom_site_type_symbol
_atom_site_fract_x
_atom_site_fract_y
_atom_site_fract_z
V1    V   0.18284  0.07842  0.22792
V2    V   0.18284  0.42158  0.77208
V3    V   0.31716  0.07842  0.72792
V4    V   0.31716  0.42158  0.27208
V5    V   0.68284  0.57842  0.72792
V6    V   0.68284  0.92158  0.27208
V7    V   0.81716  0.57842  0.22792
V8    V   0.81716  0.92158  0.77208
E1    E   0.00000  0.00000  0.00000
E2    E   0.00000  0.50000  0.00000
E3    E   0.06716  0.00000  0.72792
E4    E   0.06716  0.50000  0.27208
E5    E   0.25000  0.07842  0.00000
E6    E   0.25000  0.07842  0.50000
E7    E   0.25000  0.25000  0.25000
E8    E   0.25000  0.25000  0.75000
E9    E   0.25000  0.42158  0.00000
E10   E   0.25000  0.42158  0.50000
E11   E   0.43284  0.00000  0.22792
E12   E   0.43284  0.50000  0.77208
E13   E   0.50000  0.00000  0.50000
E14   E   0.50000  0.50000  0.50000
E15   E   0.56716  0.00000  0.77208
E16   E   0.56716  0.50000  0.22792
E17   E   0.75000  0.57842  0.00000
E18   E   0.75000  0.57842  0.50000
E19   E   0.75000  0.75000  0.25000
E20   E   0.75000  0.75000  0.75000
E21   E   0.75000  0.92158  0.00000
E22   E   0.75000  0.92158  0.50000
E23   E   0.93284  0.00000  0.27208
E24   E   0.93284  0.50000  0.72792
loop_
