data_vml_I12/a1  hall_number: 107, V_con: 7
_audit_creation_date              2025-03-06
_audit_creation_method            'MOFbuilder_1.0'
_symmetry_space_group_name_H-M    'P1'
_symmetry_Int_Tables_number       1
_symmetry_cell_setting            triclinic
loop_
_symmetry_equiv_pos_as_xyz
  x,y,z
_cell_length_a                    19.2579
_cell_length_b                    16.666700000000002
_cell_length_c                    26.7436
_cell_angle_alpha                 90.0
_cell_angle_beta                  96.7824
_cell_angle_gamma                 90.0
loop_
_atom_site_label
_atom_site_type_symbol
_atom_site_fract_x
_atom_site_fract_y
_atom_site_fract_z
V1    V   0.08879  0.08096  0.66091
V2    V   0.08879  0.41904  0.33909
V3    V   0.41121  0.08096  0.16091
V4    V   0.41121  0.41904  0.83909
V5    V   0.58879  0.58096  0.16091
V6    V   0.58879  0.91904  0.83909
V7    V   0.91121  0.58096  0.66091
V8    V   0.91121  0.91904  0.33909
E1    E   0.00000  0.00000  0.50000
E2    E   0.00000  0.16904  0.25000
E3    E   0.00000  0.33096  0.75000
E4    E   0.00000  0.50000  0.50000
E5    E   0.00000  0.66904  0.25000
E6    E   0.00000  0.83096  0.75000
E7    E   0.16121  0.00000  0.33909
E8    E   0.16121  0.50000  0.66091
E9    E   0.25000  0.08096  0.00000
E10   E   0.25000  0.08096  0.50000
E11   E   0.25000  0.25000  0.25000
E12   E   0.25000  0.25000  0.75000
E13   E   0.25000  0.41904  0.00000
E14   E   0.25000  0.41904  0.50000
E15   E   0.33879  0.00000  0.83909
E16   E   0.33879  0.50000  0.16091
E17   E   0.50000  0.00000  0.00000
E18   E   0.50000  0.16904  0.75000
E19   E   0.50000  0.33096  0.25000
E20   E   0.50000  0.50000  0.00000
E21   E   0.50000  0.66904  0.75000
E22   E   0.50000  0.83096  0.25000
E23   E   0.66121  0.00000  0.16091
E24   E   0.66121  0.50000  0.83909
E25   E   0.75000  0.58096  0.00000
E26   E   0.75000  0.58096  0.50000
E27   E   0.75000  0.75000  0.25000
E28   E   0.75000  0.75000  0.75000
E29   E   0.75000  0.91904  0.00000
E30   E   0.75000  0.91904  0.50000
E31   E   0.83879  0.00000  0.66091
E32   E   0.83879  0.50000  0.33909
loop_
