data_vmn_I12/a1  hall_number: 107, V_con: 7
_audit_creation_date              2025-03-06
_audit_creation_method            'MOFbuilder_1.0'
_symmetry_space_group_name_H-M    'P1'
_symmetry_Int_Tables_number       1
_symmetry_cell_setting            triclinic
loop_
_symmetry_equiv_pos_as_xyz
  x,y,z
_cell_length_a                    21.977899999999998
_cell_length_b                    18.721
_cell_length_c                    19.7314
_cell_angle_alpha                 90.0
_cell_angle_beta                  116.534
_cell_angle_gamma                 90.0
loop_
_atom_site_label
_atom_site_type_symbol
_atom_site_fract_x
_atom_site_fract_y
_atom_site_fract_z
V1    V   0.00164  0.20637  0.83833
V2    V   0.00164  0.29363  0.16167
V3    V   0.49836  0.20637  0.33833
V4    V   0.49836  0.29363  0.66167
V5    V   0.50164  0.70637  0.33833
V6    V   0.50164  0.79363  0.66167
V7    V   0.99836  0.70637  0.83833
V8    V   0.99836  0.79363  0.16167
E1    E   0.00000  0.00000  0.00000
E2    E   0.00000  0.04363  0.25000
E3    E   0.00000  0.45637  0.75000
E4    E   0.00000  0.50000  0.00000
E5    E   0.00000  0.54363  0.25000
E6    E   0.00000  0.95637  0.75000
E7    E   0.00164  0.25000  0.08833
E8    E   0.00164  0.25000  0.91167
E9    E   0.25000  0.25000  0.25000
E10   E   0.25000  0.25000  0.75000
E11   E   0.25000  0.70637  0.00000
E12   E   0.25000  0.70637  0.50000
E13   E   0.25000  0.79363  0.00000
E14   E   0.25000  0.79363  0.50000
E15   E   0.49836  0.25000  0.41167
E16   E   0.49836  0.25000  0.58833
E17   E   0.50000  0.00000  0.50000
E18   E   0.50000  0.04363  0.75000
E19   E   0.50000  0.45637  0.25000
E20   E   0.50000  0.50000  0.50000
E21   E   0.50000  0.54363  0.75000
E22   E   0.50000  0.95637  0.25000
E23   E   0.50164  0.75000  0.41167
E24   E   0.50164  0.75000  0.58833
E25   E   0.75000  0.20637  0.00000
E26   E   0.75000  0.20637  0.50000
E27   E   0.75000  0.29363  0.00000
E28   E   0.75000  0.29363  0.50000
E29   E   0.75000  0.75000  0.25000
E30   E   0.75000  0.75000  0.75000
E31   E   0.99836  0.75000  0.08833
E32   E   0.99836  0.75000  0.91167
loop_
