data_vmp_I12/m1  hall_number: 71, V_con: 7
_audit_creation_date              2025-03-06
_audit_creation_method            'MOFbuilder_1.0'
_symmetry_space_group_name_H-M    'P1'
_symmetry_Int_Tables_number       1
_symmetry_cell_setting            triclinic
loop_
_symmetry_equiv_pos_as_xyz
  x,y,z
_cell_length_a                    10.0
_cell_length_b                    39.5916
_cell_length_c                    18.9775
_cell_angle_alpha                 90.0
_cell_angle_beta                  101.5999
_cell_angle_gamma                 90.0
loop_
_atom_site_label
_atom_site_type_symbol
_atom_site_fract_x
_atom_site_fract_y
_atom_site_fract_z
V1    V   0.16112  0.37371  0.26707
V2    V   0.16112  0.62629  0.73293
V3    V   0.33888  0.12629  0.23293
V4    V   0.33888  0.87371  0.76707
V5    V   0.66112  0.12629  0.23293
V6    V   0.66112  0.87371  0.76707
V7    V   0.83888  0.37371  0.26707
V8    V   0.83888  0.62629  0.73293
E1    E   0.00000  0.12629  0.00000
E2    E   0.00000  0.37371  0.00000
E3    E   0.00000  0.37371  0.50000
E4    E   0.00000  0.62629  0.00000
E5    E   0.00000  0.62629  0.50000
E6    E   0.00000  0.87371  0.00000
E7    E   0.16112  0.50000  0.26707
E8    E   0.16112  0.50000  0.73293
E9    E   0.16112  0.12629  0.23293
E10   E   0.16112  0.87371  0.76707
E11   E   0.25000  0.25000  0.25000
E12   E   0.25000  0.75000  0.75000
E13   E   0.33888  0.00000  0.23293
E14   E   0.33888  0.00000  0.76707
E15   E   0.33888  0.37371  0.26707
E16   E   0.33888  0.62629  0.73293
E17   E   0.50000  0.12629  0.00000
E18   E   0.50000  0.12629  0.50000
E19   E   0.50000  0.37371  0.50000
E20   E   0.50000  0.62629  0.50000
E21   E   0.50000  0.87371  0.00000
E22   E   0.50000  0.87371  0.50000
E23   E   0.66112  0.00000  0.23293
E24   E   0.66112  0.00000  0.76707
E25   E   0.66112  0.37371  0.26707
E26   E   0.66112  0.62629  0.73293
E27   E   0.75000  0.25000  0.25000
E28   E   0.75000  0.75000  0.75000
E29   E   0.83888  0.12629  0.23293
E30   E   0.83888  0.87371  0.76707
E31   E   0.83888  0.50000  0.26707
E32   E   0.83888  0.50000  0.73293
loop_
