data_vmy_I12/a1  hall_number: 107, V_con: 8
_audit_creation_date              2025-03-06
_audit_creation_method            'MOFbuilder_1.0'
_symmetry_space_group_name_H-M    'P1'
_symmetry_Int_Tables_number       1
_symmetry_cell_setting            triclinic
loop_
_symmetry_equiv_pos_as_xyz
  x,y,z
_cell_length_a                    24.879199999999997
_cell_length_b                    18.1413
_cell_length_c                    16.6871
_cell_angle_alpha                 90.0
_cell_angle_beta                  100.8943
_cell_angle_gamma                 90.0
loop_
_atom_site_label
_atom_site_type_symbol
_atom_site_fract_x
_atom_site_fract_y
_atom_site_fract_z
V1    V   0.08616  0.59807  0.27428
V2    V   0.08616  0.90193  0.72572
V3    V   0.41384  0.59807  0.77428
V4    V   0.41384  0.90193  0.22572
V5    V   0.58616  0.09807  0.77428
V6    V   0.58616  0.40193  0.22572
V7    V   0.91384  0.09807  0.27428
V8    V   0.91384  0.40193  0.72572
E1    E   0.00000  0.00000  0.00000
E2    E   0.00000  0.00000  0.50000
E3    E   0.00000  0.15193  0.75000
E4    E   0.00000  0.34807  0.25000
E5    E   0.00000  0.50000  0.00000
E6    E   0.00000  0.50000  0.50000
E7    E   0.00000  0.65193  0.75000
E8    E   0.00000  0.84807  0.25000
E9    E   0.08616  0.75000  0.02428
E10   E   0.08616  0.75000  0.97572
E11   E   0.25000  0.59807  0.00000
E12   E   0.25000  0.59807  0.50000
E13   E   0.25000  0.75000  0.25000
E14   E   0.25000  0.75000  0.75000
E15   E   0.25000  0.90193  0.00000
E16   E   0.25000  0.90193  0.50000
E17   E   0.41384  0.75000  0.47572
E18   E   0.41384  0.75000  0.52428
E19   E   0.50000  0.00000  0.00000
E20   E   0.50000  0.00000  0.50000
E21   E   0.50000  0.15193  0.25000
E22   E   0.50000  0.34807  0.75000
E23   E   0.50000  0.50000  0.00000
E24   E   0.50000  0.50000  0.50000
E25   E   0.50000  0.65193  0.25000
E26   E   0.50000  0.84807  0.75000
E27   E   0.58616  0.25000  0.47572
E28   E   0.58616  0.25000  0.52428
E29   E   0.75000  0.09807  0.00000
E30   E   0.75000  0.09807  0.50000
E31   E   0.75000  0.25000  0.25000
E32   E   0.75000  0.25000  0.75000
E33   E   0.75000  0.40193  0.00000
E34   E   0.75000  0.40193  0.50000
E35   E   0.91384  0.25000  0.02428
E36   E   0.91384  0.25000  0.97572
loop_
