data_vnb_C12/c1  hall_number: 107, V_con: 9
_audit_creation_date              2025-03-06
_audit_creation_method            'MOFbuilder_1.0'
_symmetry_space_group_name_H-M    'P1'
_symmetry_Int_Tables_number       1
_symmetry_cell_setting            triclinic
loop_
_symmetry_equiv_pos_as_xyz
  x,y,z
_cell_length_a                    15.1621
_cell_length_b                    13.0426
_cell_length_c                    32.8284
_cell_angle_alpha                 90.0
_cell_angle_beta                  99.754
_cell_angle_gamma                 90.0
loop_
_atom_site_label
_atom_site_type_symbol
_atom_site_fract_x
_atom_site_fract_y
_atom_site_fract_z
V1    V   0.17489  0.12392  0.13384
V2    V   0.17489  0.37608  0.86616
V3    V   0.32511  0.12392  0.63384
V4    V   0.32511  0.37608  0.36616
V5    V   0.67489  0.62392  0.63384
V6    V   0.67489  0.87608  0.36616
V7    V   0.82511  0.62392  0.13384
V8    V   0.82511  0.87608  0.86616
E1    E   0.00000  0.00000  0.00000
E2    E   0.00000  0.12392  0.25000
E3    E   0.00000  0.37608  0.75000
E4    E   0.00000  0.50000  0.00000
E5    E   0.00000  0.62392  0.25000
E6    E   0.00000  0.87608  0.75000
E7    E   0.07511  0.12608  0.36616
E8    E   0.07511  0.37392  0.63384
E9    E   0.07511  0.62608  0.36616
E10   E   0.07511  0.87392  0.63384
E11   E   0.25000  0.25000  0.00000
E12   E   0.25000  0.25000  0.50000
E13   E   0.25000  0.62608  0.25000
E14   E   0.25000  0.62608  0.75000
E15   E   0.25000  0.87392  0.25000
E16   E   0.25000  0.87392  0.75000
E17   E   0.42489  0.12608  0.86616
E18   E   0.42489  0.37392  0.13384
E19   E   0.42489  0.62608  0.86616
E20   E   0.42489  0.87392  0.13384
E21   E   0.50000  0.00000  0.50000
E22   E   0.50000  0.12392  0.75000
E23   E   0.50000  0.37608  0.25000
E24   E   0.50000  0.50000  0.50000
E25   E   0.50000  0.62392  0.75000
E26   E   0.50000  0.87608  0.25000
E27   E   0.57511  0.12608  0.86616
E28   E   0.57511  0.37392  0.13384
E29   E   0.57511  0.62608  0.86616
E30   E   0.57511  0.87392  0.13384
E31   E   0.75000  0.12608  0.25000
E32   E   0.75000  0.12608  0.75000
E33   E   0.75000  0.37392  0.25000
E34   E   0.75000  0.37392  0.75000
E35   E   0.75000  0.75000  0.00000
E36   E   0.75000  0.75000  0.50000
E37   E   0.92489  0.12608  0.36616
E38   E   0.92489  0.37392  0.63384
E39   E   0.92489  0.62608  0.36616
E40   E   0.92489  0.87392  0.63384
loop_
