data_vng_C12/m1  hall_number: 71, V_con: 6
_audit_creation_date              2025-03-06
_audit_creation_method            'MOFbuilder_1.0'
_symmetry_space_group_name_H-M    'P1'
_symmetry_Int_Tables_number       1
_symmetry_cell_setting            triclinic
loop_
_symmetry_equiv_pos_as_xyz
  x,y,z
_cell_length_a                    17.808500000000002
_cell_length_b                    29.1796
_cell_length_c                    19.029
_cell_angle_alpha                 90.0
_cell_angle_beta                  106.4474
_cell_angle_gamma                 90.0
loop_
_atom_site_label
_atom_site_type_symbol
_atom_site_fract_x
_atom_site_fract_y
_atom_site_fract_z
V1    V   0.08891  0.17177  0.27408
V2    V   0.08891  0.82823  0.72592
V3    V   0.41109  0.32823  0.22592
V4    V   0.41109  0.67177  0.77408
V5    V   0.58891  0.32823  0.22592
V6    V   0.58891  0.67177  0.77408
V7    V   0.91109  0.17177  0.27408
V8    V   0.91109  0.82823  0.72592
E1    E   0.00000  0.17177  0.00000
E2    E   0.00000  0.17177  0.50000
E3    E   0.00000  0.82823  0.00000
E4    E   0.00000  0.82823  0.50000
E5    E   0.08891  0.00000  0.27408
E6    E   0.08891  0.00000  0.72592
E7    E   0.16109  0.25000  0.22592
E8    E   0.16109  0.75000  0.77408
E9    E   0.25000  0.25000  0.00000
E10   E   0.25000  0.25000  0.50000
E11   E   0.25000  0.75000  0.00000
E12   E   0.25000  0.75000  0.50000
E13   E   0.33891  0.25000  0.27408
E14   E   0.33891  0.75000  0.72592
E15   E   0.41109  0.50000  0.22592
E16   E   0.41109  0.50000  0.77408
E17   E   0.50000  0.32823  0.00000
E18   E   0.50000  0.32823  0.50000
E19   E   0.50000  0.67177  0.00000
E20   E   0.50000  0.67177  0.50000
E21   E   0.58891  0.50000  0.22592
E22   E   0.58891  0.50000  0.77408
E23   E   0.66109  0.25000  0.27408
E24   E   0.66109  0.75000  0.72592
E25   E   0.75000  0.25000  0.00000
E26   E   0.75000  0.25000  0.50000
E27   E   0.75000  0.75000  0.00000
E28   E   0.75000  0.75000  0.50000
E29   E   0.83891  0.25000  0.22592
E30   E   0.83891  0.75000  0.77408
E31   E   0.91109  0.00000  0.27408
E32   E   0.91109  0.00000  0.72592
loop_
