data_wfc_I41/a:2  hall_number: 365, V_con: 9
_audit_creation_date              2025-03-06
_audit_creation_method            'MOFbuilder_1.0'
_symmetry_space_group_name_H-M    'P1'
_symmetry_Int_Tables_number       1
_symmetry_cell_setting            triclinic
loop_
_symmetry_equiv_pos_as_xyz
  x,y,z
_cell_length_a                    35.7071
_cell_length_b                    35.7071
_cell_length_c                    10.0
_cell_angle_alpha                 90.0
_cell_angle_beta                  90.0
_cell_angle_gamma                 90.0
loop_
_atom_site_label
_atom_site_type_symbol
_atom_site_fract_x
_atom_site_fract_y
_atom_site_fract_z
V1    V   0.08823  0.39706  0.37500
V2    V   0.08823  0.89706  0.62500
V3    V   0.14706  0.16177  0.87500
V4    V   0.14706  0.66177  0.12500
V5    V   0.35294  0.33823  0.62500
V6    V   0.35294  0.83823  0.37500
V7    V   0.41177  0.10294  0.12500
V8    V   0.41177  0.60294  0.87500
V9    V   0.58823  0.39706  0.12500
V10   V   0.58823  0.89706  0.87500
V11   V   0.64706  0.16177  0.62500
V12   V   0.64706  0.66177  0.37500
V13   V   0.85294  0.33823  0.87500
V14   V   0.85294  0.83823  0.12500
V15   V   0.91177  0.10294  0.37500
V16   V   0.91177  0.60294  0.62500
E1    E   0.00000  0.00000  0.50000
E2    E   0.00000  0.50000  0.50000
E3    E   0.02941  0.13235  0.12500
E4    E   0.02941  0.13235  0.62500
E5    E   0.02941  0.63235  0.37500
E6    E   0.02941  0.63235  0.87500
E7    E   0.08823  0.39706  0.87500
E8    E   0.08823  0.89706  0.12500
E9    E   0.11765  0.27941  0.12500
E10   E   0.11765  0.27941  0.62500
E11   E   0.11765  0.77941  0.37500
E12   E   0.11765  0.77941  0.87500
E13   E   0.11765  0.02941  0.75000
E14   E   0.11765  0.52941  0.25000
E15   E   0.14706  0.16177  0.37500
E16   E   0.14706  0.66177  0.62500
E17   E   0.22059  0.36765  0.50000
E18   E   0.22059  0.86765  0.50000
E19   E   0.25000  0.25000  0.75000
E20   E   0.25000  0.75000  0.25000
E21   E   0.27941  0.13235  0.00000
E22   E   0.27941  0.63235  0.00000
E23   E   0.35294  0.33823  0.12500
E24   E   0.35294  0.83823  0.87500
E25   E   0.38235  0.47059  0.75000
E26   E   0.38235  0.97059  0.25000
E27   E   0.38235  0.22059  0.37500
E28   E   0.38235  0.22059  0.87500
E29   E   0.38235  0.72059  0.12500
E30   E   0.38235  0.72059  0.62500
E31   E   0.41177  0.10294  0.62500
E32   E   0.41177  0.60294  0.37500
E33   E   0.47059  0.36765  0.37500
E34   E   0.47059  0.36765  0.87500
E35   E   0.47059  0.86765  0.12500
E36   E   0.47059  0.86765  0.62500
E37   E   0.50000  0.00000  0.00000
E38   E   0.50000  0.50000  0.00000
E39   E   0.52941  0.13235  0.37500
E40   E   0.52941  0.13235  0.87500
E41   E   0.52941  0.63235  0.12500
E42   E   0.52941  0.63235  0.62500
E43   E   0.58823  0.39706  0.62500
E44   E   0.58823  0.89706  0.37500
E45   E   0.61765  0.02941  0.75000
E46   E   0.61765  0.27941  0.37500
E47   E   0.61765  0.27941  0.87500
E48   E   0.61765  0.52941  0.25000
E49   E   0.61765  0.77941  0.12500
E50   E   0.61765  0.77941  0.62500
E51   E   0.64706  0.16177  0.12500
E52   E   0.64706  0.66177  0.87500
E53   E   0.72059  0.36765  0.00000
E54   E   0.72059  0.86765  0.00000
E55   E   0.75000  0.25000  0.75000
E56   E   0.75000  0.75000  0.25000
E57   E   0.77941  0.13235  0.50000
E58   E   0.77941  0.63235  0.50000
E59   E   0.85294  0.33823  0.37500
E60   E   0.85294  0.83823  0.62500
E61   E   0.88235  0.22059  0.12500
E62   E   0.88235  0.22059  0.62500
E63   E   0.88235  0.47059  0.75000
E64   E   0.88235  0.72059  0.37500
E65   E   0.88235  0.72059  0.87500
E66   E   0.88235  0.97059  0.25000
E67   E   0.91177  0.10294  0.87500
E68   E   0.91177  0.60294  0.12500
E69   E   0.97059  0.36765  0.12500
E70   E   0.97059  0.36765  0.62500
E71   E   0.97059  0.86765  0.37500
E72   E   0.97059  0.86765  0.87500
loop_
