data_wff_I-42m  hall_number: 398, V_con: 8
_audit_creation_date              2025-03-06
_audit_creation_method            'MOFbuilder_1.0'
_symmetry_space_group_name_H-M    'P1'
_symmetry_Int_Tables_number       1
_symmetry_cell_setting            triclinic
loop_
_symmetry_equiv_pos_as_xyz
  x,y,z
_cell_length_a                    18.7307
_cell_length_b                    18.7307
_cell_length_c                    19.2343
_cell_angle_alpha                 90.0
_cell_angle_beta                  90.0
_cell_angle_gamma                 90.0
loop_
_atom_site_label
_atom_site_type_symbol
_atom_site_fract_x
_atom_site_fract_y
_atom_site_fract_z
V1    V   0.19828  0.19828  0.82595
V2    V   0.19828  0.80172  0.17405
V3    V   0.30172  0.30172  0.32595
V4    V   0.30172  0.69828  0.67405
V5    V   0.69828  0.30172  0.67405
V6    V   0.69828  0.69828  0.32595
V7    V   0.80172  0.19828  0.17405
V8    V   0.80172  0.80172  0.82595
E1    E   0.00000  0.19828  0.00000
E2    E   0.00000  0.80172  0.00000
E3    E   0.05172  0.25000  0.25000
E4    E   0.05172  0.75000  0.75000
E5    E   0.19828  0.00000  0.00000
E6    E   0.25000  0.05172  0.25000
E7    E   0.25000  0.25000  0.07595
E8    E   0.25000  0.25000  0.57595
E9    E   0.25000  0.44828  0.75000
E10   E   0.25000  0.55172  0.25000
E11   E   0.25000  0.75000  0.42405
E12   E   0.25000  0.75000  0.92405
E13   E   0.25000  0.94828  0.75000
E14   E   0.30172  0.50000  0.50000
E15   E   0.44828  0.25000  0.75000
E16   E   0.44828  0.75000  0.25000
E17   E   0.50000  0.30172  0.50000
E18   E   0.50000  0.69828  0.50000
E19   E   0.55172  0.25000  0.25000
E20   E   0.55172  0.75000  0.75000
E21   E   0.69828  0.50000  0.50000
E22   E   0.75000  0.05172  0.75000
E23   E   0.75000  0.25000  0.42405
E24   E   0.75000  0.25000  0.92405
E25   E   0.75000  0.44828  0.25000
E26   E   0.75000  0.55172  0.75000
E27   E   0.75000  0.75000  0.07595
E28   E   0.75000  0.75000  0.57595
E29   E   0.75000  0.94828  0.25000
E30   E   0.80172  0.00000  0.00000
E31   E   0.94828  0.25000  0.75000
E32   E   0.94828  0.75000  0.25000
loop_
