data_wfg_P4/ncc:2  hall_number: 411, V_con: 8
_audit_creation_date              2025-03-06
_audit_creation_method            'MOFbuilder_1.0'
_symmetry_space_group_name_H-M    'P1'
_symmetry_Int_Tables_number       1
_symmetry_cell_setting            triclinic
loop_
_symmetry_equiv_pos_as_xyz
  x,y,z
_cell_length_a                    27.0065
_cell_length_b                    27.0065
_cell_length_c                    18.5784
_cell_angle_alpha                 90.0
_cell_angle_beta                  90.0
_cell_angle_gamma                 90.0
loop_
_atom_site_label
_atom_site_type_symbol
_atom_site_fract_x
_atom_site_fract_y
_atom_site_fract_z
V1    V   0.00269  0.68144  0.55335
V2    V   0.00269  0.81856  0.05335
V3    V   0.18144  0.50269  0.94665
V4    V   0.18144  0.99731  0.44665
V5    V   0.31856  0.50269  0.44665
V6    V   0.31856  0.99731  0.94665
V7    V   0.49731  0.68144  0.05335
V8    V   0.49731  0.81856  0.55335
V9    V   0.50269  0.18144  0.44665
V10   V   0.50269  0.31856  0.94665
V11   V   0.68144  0.00269  0.05335
V12   V   0.68144  0.49731  0.55335
V13   V   0.81856  0.00269  0.55335
V14   V   0.81856  0.49731  0.05335
V15   V   0.99731  0.18144  0.94665
V16   V   0.99731  0.31856  0.44665
E1    E   0.00000  0.00000  0.00000
E2    E   0.00000  0.00000  0.50000
E3    E   0.00000  0.50000  0.00000
E4    E   0.00000  0.50000  0.50000
E5    E   0.00269  0.75000  0.30335
E6    E   0.00269  0.75000  0.80335
E7    E   0.08938  0.15793  0.44665
E8    E   0.08938  0.34207  0.94665
E9    E   0.09207  0.59207  0.75000
E10   E   0.09207  0.90793  0.25000
E11   E   0.09207  0.59207  0.75000
E12   E   0.09207  0.66062  0.00000
E13   E   0.09207  0.83938  0.50000
E14   E   0.09207  0.90793  0.25000
E15   E   0.15793  0.08938  0.94665
E16   E   0.15793  0.41062  0.44665
E17   E   0.16062  0.59207  0.50000
E18   E   0.16062  0.90793  0.00000
E19   E   0.25000  0.50269  0.19665
E20   E   0.25000  0.50269  0.69665
E21   E   0.25000  0.99731  0.19665
E22   E   0.25000  0.99731  0.69665
E23   E   0.33938  0.59207  0.00000
E24   E   0.33938  0.90793  0.50000
E25   E   0.34207  0.08938  0.44665
E26   E   0.34207  0.41062  0.94665
E27   E   0.40793  0.59207  0.25000
E28   E   0.40793  0.66062  0.50000
E29   E   0.40793  0.83938  0.00000
E30   E   0.40793  0.90793  0.75000
E31   E   0.41062  0.15793  0.94665
E32   E   0.41062  0.34207  0.44665
E33   E   0.49731  0.75000  0.30335
E34   E   0.49731  0.75000  0.80335
E35   E   0.50000  0.00000  0.00000
E36   E   0.50000  0.00000  0.50000
E37   E   0.50000  0.50000  0.00000
E38   E   0.50000  0.50000  0.50000
E39   E   0.50269  0.25000  0.19665
E40   E   0.50269  0.25000  0.69665
E41   E   0.58938  0.65793  0.55335
E42   E   0.58938  0.84207  0.05335
E43   E   0.59207  0.09207  0.25000
E44   E   0.59207  0.09207  0.25000
E45   E   0.59207  0.16062  0.00000
E46   E   0.59207  0.33938  0.50000
E47   E   0.59207  0.40793  0.75000
E48   E   0.65793  0.58938  0.05335
E49   E   0.65793  0.91062  0.55335
E50   E   0.66062  0.09207  0.50000
E51   E   0.66062  0.40793  0.00000
E52   E   0.75000  0.00269  0.30335
E53   E   0.75000  0.00269  0.80335
E54   E   0.75000  0.49731  0.30335
E55   E   0.75000  0.49731  0.80335
E56   E   0.83938  0.09207  0.00000
E57   E   0.83938  0.40793  0.50000
E58   E   0.84207  0.58938  0.55335
E59   E   0.84207  0.91062  0.05335
E60   E   0.90793  0.09207  0.75000
E61   E   0.90793  0.09207  0.75000
E62   E   0.90793  0.16062  0.50000
E63   E   0.90793  0.33938  0.00000
E64   E   0.90793  0.40793  0.25000
E65   E   0.91062  0.65793  0.05335
E66   E   0.91062  0.84207  0.55335
E67   E   0.99731  0.25000  0.19665
E68   E   0.99731  0.25000  0.69665
loop_
