data_wfl_I41/amd:2  hall_number: 427, V_con: 8
_audit_creation_date              2025-03-06
_audit_creation_method            'MOFbuilder_1.0'
_symmetry_space_group_name_H-M    'P1'
_symmetry_Int_Tables_number       1
_symmetry_cell_setting            triclinic
loop_
_symmetry_equiv_pos_as_xyz
  x,y,z
_cell_length_a                    23.128
_cell_length_b                    23.128
_cell_length_c                    22.597299999999997
_cell_angle_alpha                 90.0
_cell_angle_beta                  90.0
_cell_angle_gamma                 90.0
loop_
_atom_site_label
_atom_site_type_symbol
_atom_site_fract_x
_atom_site_fract_y
_atom_site_fract_z
V1    V   0.00000  0.03381  0.21854
V2    V   0.00000  0.46619  0.21854
V3    V   0.00000  0.53381  0.78146
V4    V   0.00000  0.96619  0.78146
V5    V   0.21619  0.25000  0.53146
V6    V   0.21619  0.75000  0.46854
V7    V   0.28381  0.25000  0.96854
V8    V   0.28381  0.75000  0.03146
V9    V   0.50000  0.03381  0.28146
V10   V   0.50000  0.46619  0.28146
V11   V   0.50000  0.53381  0.71854
V12   V   0.50000  0.96619  0.71854
V13   V   0.71619  0.25000  0.96854
V14   V   0.71619  0.75000  0.03146
V15   V   0.78381  0.25000  0.53146
V16   V   0.78381  0.75000  0.46854
E1    E   0.00000  0.00000  0.00000
E2    E   0.00000  0.25000  0.21854
E3    E   0.00000  0.25000  0.53146
E4    E   0.00000  0.50000  0.00000
E5    E   0.00000  0.75000  0.46854
E6    E   0.00000  0.75000  0.78146
E7    E   0.10809  0.10809  0.65646
E8    E   0.10809  0.14191  0.37500
E9    E   0.10809  0.35809  0.37500
E10   E   0.10809  0.39191  0.65646
E11   E   0.10809  0.60809  0.34354
E12   E   0.10809  0.64191  0.62500
E13   E   0.10809  0.85809  0.62500
E14   E   0.10809  0.89191  0.34354
E15   E   0.10809  0.14191  0.37500
E16   E   0.10809  0.35809  0.37500
E17   E   0.10809  0.64191  0.62500
E18   E   0.10809  0.85809  0.62500
E19   E   0.14191  0.14191  0.09354
E20   E   0.14191  0.35809  0.09354
E21   E   0.14191  0.64191  0.90646
E22   E   0.14191  0.85809  0.90646
E23   E   0.25000  0.25000  0.75000
E24   E   0.25000  0.75000  0.25000
E25   E   0.35809  0.14191  0.40646
E26   E   0.35809  0.35809  0.40646
E27   E   0.35809  0.64191  0.59354
E28   E   0.35809  0.85809  0.59354
E29   E   0.39191  0.10809  0.84354
E30   E   0.39191  0.14191  0.12500
E31   E   0.39191  0.14191  0.12500
E32   E   0.39191  0.35809  0.12500
E33   E   0.39191  0.39191  0.84354
E34   E   0.39191  0.60809  0.15646
E35   E   0.39191  0.64191  0.87500
E36   E   0.39191  0.85809  0.87500
E37   E   0.39191  0.89191  0.15646
E38   E   0.50000  0.00000  0.50000
E39   E   0.50000  0.25000  0.28146
E40   E   0.50000  0.25000  0.96854
E41   E   0.50000  0.50000  0.50000
E42   E   0.50000  0.75000  0.03146
E43   E   0.50000  0.75000  0.71854
E44   E   0.60809  0.10809  0.84354
E45   E   0.60809  0.14191  0.12500
E46   E   0.60809  0.14191  0.12500
E47   E   0.60809  0.35809  0.12500
E48   E   0.60809  0.39191  0.84354
E49   E   0.60809  0.60809  0.15646
E50   E   0.60809  0.64191  0.87500
E51   E   0.60809  0.85809  0.87500
E52   E   0.60809  0.89191  0.15646
E53   E   0.64191  0.14191  0.40646
E54   E   0.64191  0.35809  0.40646
E55   E   0.64191  0.64191  0.59354
E56   E   0.64191  0.85809  0.59354
E57   E   0.75000  0.25000  0.75000
E58   E   0.75000  0.75000  0.25000
E59   E   0.85809  0.14191  0.09354
E60   E   0.85809  0.35809  0.09354
E61   E   0.85809  0.64191  0.90646
E62   E   0.85809  0.85809  0.90646
E63   E   0.89191  0.10809  0.65646
E64   E   0.89191  0.14191  0.37500
E65   E   0.89191  0.14191  0.37500
E66   E   0.89191  0.35809  0.37500
E67   E   0.89191  0.39191  0.65646
E68   E   0.89191  0.60809  0.34354
E69   E   0.89191  0.64191  0.62500
E70   E   0.89191  0.85809  0.62500
E71   E   0.89191  0.89191  0.34354
loop_
