data_wfs_I-42m  hall_number: 398, V_con: 7
_audit_creation_date              2025-03-06
_audit_creation_method            'MOFbuilder_1.0'
_symmetry_space_group_name_H-M    'P1'
_symmetry_Int_Tables_number       1
_symmetry_cell_setting            triclinic
loop_
_symmetry_equiv_pos_as_xyz
  x,y,z
_cell_length_a                    17.770699999999998
_cell_length_b                    17.770699999999998
_cell_length_c                    22.5705
_cell_angle_alpha                 90.0
_cell_angle_beta                  90.0
_cell_angle_gamma                 90.0
loop_
_atom_site_label
_atom_site_type_symbol
_atom_site_fract_x
_atom_site_fract_y
_atom_site_fract_z
V1    V   0.19895  0.19895  0.15665
V2    V   0.19895  0.80105  0.84335
V3    V   0.30105  0.30105  0.65665
V4    V   0.30105  0.69895  0.34335
V5    V   0.69895  0.30105  0.34335
V6    V   0.69895  0.69895  0.65665
V7    V   0.80105  0.19895  0.84335
V8    V   0.80105  0.80105  0.15665
E1    E   0.00000  0.00000  0.15665
E2    E   0.00000  0.00000  0.84335
E3    E   0.00000  0.19895  0.00000
E4    E   0.00000  0.80105  0.00000
E5    E   0.05105  0.25000  0.75000
E6    E   0.05105  0.75000  0.25000
E7    E   0.19895  0.00000  0.00000
E8    E   0.25000  0.05105  0.75000
E9    E   0.25000  0.44895  0.25000
E10   E   0.25000  0.55105  0.75000
E11   E   0.25000  0.94895  0.25000
E12   E   0.30105  0.50000  0.50000
E13   E   0.44895  0.25000  0.25000
E14   E   0.44895  0.75000  0.75000
E15   E   0.50000  0.30105  0.50000
E16   E   0.50000  0.50000  0.34335
E17   E   0.50000  0.50000  0.65665
E18   E   0.50000  0.69895  0.50000
E19   E   0.55105  0.25000  0.75000
E20   E   0.55105  0.75000  0.25000
E21   E   0.69895  0.50000  0.50000
E22   E   0.75000  0.05105  0.25000
E23   E   0.75000  0.44895  0.75000
E24   E   0.75000  0.55105  0.25000
E25   E   0.75000  0.94895  0.75000
E26   E   0.80105  0.00000  0.00000
E27   E   0.94895  0.25000  0.25000
E28   E   0.94895  0.75000  0.75000
loop_
