data_wfu_P-421c  hall_number: 391, V_con: 7
_audit_creation_date              2025-03-06
_audit_creation_method            'MOFbuilder_1.0'
_symmetry_space_group_name_H-M    'P1'
_symmetry_Int_Tables_number       1
_symmetry_cell_setting            triclinic
loop_
_symmetry_equiv_pos_as_xyz
  x,y,z
_cell_length_a                    19.4316
_cell_length_b                    19.4316
_cell_length_c                    18.2948
_cell_angle_alpha                 90.0
_cell_angle_beta                  90.0
_cell_angle_gamma                 90.0
loop_
_atom_site_label
_atom_site_type_symbol
_atom_site_fract_x
_atom_site_fract_y
_atom_site_fract_z
V1    V   0.13223  0.22074  0.69325
V2    V   0.22074  0.86777  0.30675
V3    V   0.27926  0.36777  0.19325
V4    V   0.36777  0.72074  0.80675
V5    V   0.63223  0.27926  0.80675
V6    V   0.72074  0.63223  0.19325
V7    V   0.77926  0.13223  0.30675
V8    V   0.86777  0.77926  0.69325
E1    E   0.00000  0.00000  0.30675
E2    E   0.00000  0.00000  0.69325
E3    E   0.04425  0.82352  0.50000
E4    E   0.11777  0.75000  0.75000
E5    E   0.17648  0.04425  0.50000
E6    E   0.20575  0.29425  0.44325
E7    E   0.20575  0.29425  0.94325
E8    E   0.25000  0.11777  0.25000
E9    E   0.25000  0.61777  0.25000
E10   E   0.29425  0.79425  0.05675
E11   E   0.29425  0.79425  0.55675
E12   E   0.32352  0.54425  0.00000
E13   E   0.38223  0.25000  0.75000
E14   E   0.45575  0.32352  0.00000
E15   E   0.50000  0.50000  0.19325
E16   E   0.50000  0.50000  0.80675
E17   E   0.54425  0.67648  0.00000
E18   E   0.61777  0.75000  0.75000
E19   E   0.67648  0.45575  0.00000
E20   E   0.70575  0.20575  0.05675
E21   E   0.70575  0.20575  0.55675
E22   E   0.75000  0.38223  0.25000
E23   E   0.75000  0.88223  0.25000
E24   E   0.79425  0.70575  0.44325
E25   E   0.79425  0.70575  0.94325
E26   E   0.82352  0.95575  0.50000
E27   E   0.88223  0.25000  0.75000
E28   E   0.95575  0.17648  0.50000
loop_
