data_wfw_P4/ncc:2  hall_number: 411, V_con: 7
_audit_creation_date              2025-03-06
_audit_creation_method            'MOFbuilder_1.0'
_symmetry_space_group_name_H-M    'P1'
_symmetry_Int_Tables_number       1
_symmetry_cell_setting            triclinic
loop_
_symmetry_equiv_pos_as_xyz
  x,y,z
_cell_length_a                    26.987000000000002
_cell_length_b                    26.987000000000002
_cell_length_c                    19.735799999999998
_cell_angle_alpha                 90.0
_cell_angle_beta                  90.0
_cell_angle_gamma                 90.0
loop_
_atom_site_label
_atom_site_type_symbol
_atom_site_fract_x
_atom_site_fract_y
_atom_site_fract_z
V1    V   0.01029  0.71998  0.59809
V2    V   0.01029  0.78002  0.09809
V3    V   0.21998  0.51029  0.90191
V4    V   0.21998  0.98971  0.40191
V5    V   0.28002  0.51029  0.40191
V6    V   0.28002  0.98971  0.90191
V7    V   0.48971  0.71998  0.09809
V8    V   0.48971  0.78002  0.59809
V9    V   0.51029  0.21998  0.40191
V10   V   0.51029  0.28002  0.90191
V11   V   0.71998  0.01029  0.09809
V12   V   0.71998  0.48971  0.59809
V13   V   0.78002  0.01029  0.59809
V14   V   0.78002  0.48971  0.09809
V15   V   0.98971  0.21998  0.90191
V16   V   0.98971  0.28002  0.40191
E1    E   0.01029  0.75000  0.34809
E2    E   0.01029  0.75000  0.84809
E3    E   0.10485  0.13486  0.40191
E4    E   0.10485  0.36514  0.90191
E5    E   0.11514  0.61514  0.75000
E6    E   0.11514  0.64515  0.00000
E7    E   0.11514  0.85485  0.50000
E8    E   0.11514  0.88486  0.25000
E9    E   0.11514  0.61514  0.75000
E10   E   0.11514  0.88486  0.25000
E11   E   0.13486  0.10485  0.90191
E12   E   0.13486  0.39515  0.40191
E13   E   0.14515  0.61514  0.50000
E14   E   0.14515  0.88486  0.00000
E15   E   0.25000  0.51029  0.15191
E16   E   0.25000  0.51029  0.65191
E17   E   0.25000  0.98971  0.15191
E18   E   0.25000  0.98971  0.65191
E19   E   0.35485  0.61514  0.00000
E20   E   0.35485  0.88486  0.50000
E21   E   0.36514  0.10485  0.40191
E22   E   0.36514  0.39515  0.90191
E23   E   0.38486  0.61514  0.25000
E24   E   0.38486  0.64515  0.50000
E25   E   0.38486  0.85485  0.00000
E26   E   0.38486  0.88486  0.75000
E27   E   0.39515  0.13486  0.90191
E28   E   0.39515  0.36514  0.40191
E29   E   0.48971  0.75000  0.34809
E30   E   0.48971  0.75000  0.84809
E31   E   0.51029  0.25000  0.15191
E32   E   0.51029  0.25000  0.65191
E33   E   0.60485  0.63486  0.59809
E34   E   0.60485  0.86514  0.09809
E35   E   0.61514  0.11514  0.25000
E36   E   0.61514  0.11514  0.25000
E37   E   0.61514  0.14515  0.00000
E38   E   0.61514  0.35485  0.50000
E39   E   0.61514  0.38486  0.75000
E40   E   0.63486  0.60485  0.09809
E41   E   0.63486  0.89515  0.59809
E42   E   0.64515  0.11514  0.50000
E43   E   0.64515  0.38486  0.00000
E44   E   0.75000  0.01029  0.34809
E45   E   0.75000  0.01029  0.84809
E46   E   0.75000  0.48971  0.34809
E47   E   0.75000  0.48971  0.84809
E48   E   0.85485  0.11514  0.00000
E49   E   0.85485  0.38486  0.50000
E50   E   0.86514  0.60485  0.59809
E51   E   0.86514  0.89515  0.09809
E52   E   0.88486  0.11514  0.75000
E53   E   0.88486  0.11514  0.75000
E54   E   0.88486  0.14515  0.50000
E55   E   0.88486  0.35485  0.00000
E56   E   0.88486  0.38486  0.25000
E57   E   0.89515  0.63486  0.09809
E58   E   0.89515  0.86514  0.59809
E59   E   0.98971  0.25000  0.15191
E60   E   0.98971  0.25000  0.65191
loop_
