data_wga_I41/amd:2  hall_number: 427, V_con: 5
_audit_creation_date              2025-03-06
_audit_creation_method            'MOFbuilder_1.0'
_symmetry_space_group_name_H-M    'P1'
_symmetry_Int_Tables_number       1
_symmetry_cell_setting            triclinic
loop_
_symmetry_equiv_pos_as_xyz
  x,y,z
_cell_length_a                    67.91590000000001
_cell_length_b                    67.91590000000001
_cell_length_c                    10.0
_cell_angle_alpha                 90.0
_cell_angle_beta                  90.0
_cell_angle_gamma                 90.0
loop_
_atom_site_label
_atom_site_type_symbol
_atom_site_fract_x
_atom_site_fract_y
_atom_site_fract_z
V1    V   0.07362  0.07278  0.92456
V2    V   0.07362  0.42722  0.92456
V3    V   0.07362  0.57278  0.07544
V4    V   0.07362  0.92722  0.07544
V5    V   0.17722  0.17638  0.82544
V6    V   0.17722  0.32362  0.82544
V7    V   0.17722  0.67638  0.17456
V8    V   0.17722  0.82362  0.17456
V9    V   0.32278  0.17638  0.67456
V10   V   0.32278  0.32362  0.67456
V11   V   0.32278  0.67638  0.32544
V12   V   0.32278  0.82362  0.32544
V13   V   0.42638  0.07278  0.57544
V14   V   0.42638  0.42722  0.57544
V15   V   0.42638  0.57278  0.42456
V16   V   0.42638  0.92722  0.42456
V17   V   0.57362  0.07278  0.57544
V18   V   0.57362  0.42722  0.57544
V19   V   0.57362  0.57278  0.42456
V20   V   0.57362  0.92722  0.42456
V21   V   0.67722  0.17638  0.67456
V22   V   0.67722  0.32362  0.67456
V23   V   0.67722  0.67638  0.32544
V24   V   0.67722  0.82362  0.32544
V25   V   0.82278  0.17638  0.82544
V26   V   0.82278  0.32362  0.82544
V27   V   0.82278  0.67638  0.17456
V28   V   0.82278  0.82362  0.17456
V29   V   0.92638  0.07278  0.92456
V30   V   0.92638  0.42722  0.92456
V31   V   0.92638  0.57278  0.07544
V32   V   0.92638  0.92722  0.07544
E1    E   0.00000  0.07278  0.92456
E2    E   0.00000  0.42722  0.92456
E3    E   0.00000  0.57278  0.07544
E4    E   0.00000  0.92722  0.07544
E5    E   0.07362  0.00000  0.00000
E6    E   0.07362  0.07278  0.42456
E7    E   0.07362  0.42722  0.42456
E8    E   0.07362  0.50000  0.00000
E9    E   0.07362  0.57278  0.57544
E10   E   0.07362  0.92722  0.57544
E11   E   0.12542  0.12458  0.87500
E12   E   0.12542  0.37542  0.87500
E13   E   0.12542  0.62458  0.12500
E14   E   0.12542  0.87542  0.12500
E15   E   0.12542  0.12458  0.87500
E16   E   0.12542  0.37542  0.87500
E17   E   0.12542  0.62458  0.12500
E18   E   0.12542  0.87542  0.12500
E19   E   0.17722  0.17638  0.32544
E20   E   0.17722  0.25000  0.82544
E21   E   0.17722  0.32362  0.32544
E22   E   0.17722  0.67638  0.67456
E23   E   0.17722  0.75000  0.17456
E24   E   0.17722  0.82362  0.67456
E25   E   0.25000  0.17638  0.75000
E26   E   0.25000  0.32362  0.75000
E27   E   0.25000  0.67638  0.25000
E28   E   0.25000  0.82362  0.25000
E29   E   0.32278  0.17638  0.17456
E30   E   0.32278  0.25000  0.67456
E31   E   0.32278  0.32362  0.17456
E32   E   0.32278  0.67638  0.82544
E33   E   0.32278  0.75000  0.32544
E34   E   0.32278  0.82362  0.82544
E35   E   0.37458  0.12458  0.62500
E36   E   0.37458  0.37542  0.62500
E37   E   0.37458  0.62458  0.37500
E38   E   0.37458  0.87542  0.37500
E39   E   0.37458  0.12458  0.62500
E40   E   0.37458  0.37542  0.62500
E41   E   0.37458  0.62458  0.37500
E42   E   0.37458  0.87542  0.37500
E43   E   0.42638  0.00000  0.50000
E44   E   0.42638  0.07278  0.07544
E45   E   0.42638  0.42722  0.07544
E46   E   0.42638  0.50000  0.50000
E47   E   0.42638  0.57278  0.92456
E48   E   0.42638  0.92722  0.92456
E49   E   0.50000  0.07278  0.57544
E50   E   0.50000  0.42722  0.57544
E51   E   0.50000  0.57278  0.42456
E52   E   0.50000  0.92722  0.42456
E53   E   0.57362  0.00000  0.50000
E54   E   0.57362  0.07278  0.07544
E55   E   0.57362  0.42722  0.07544
E56   E   0.57362  0.50000  0.50000
E57   E   0.57362  0.57278  0.92456
E58   E   0.57362  0.92722  0.92456
E59   E   0.62542  0.12458  0.62500
E60   E   0.62542  0.12458  0.62500
E61   E   0.62542  0.37542  0.62500
E62   E   0.62542  0.62458  0.37500
E63   E   0.62542  0.87542  0.37500
E64   E   0.67722  0.17638  0.17456
E65   E   0.67722  0.25000  0.67456
E66   E   0.67722  0.32362  0.17456
E67   E   0.67722  0.67638  0.82544
E68   E   0.67722  0.75000  0.32544
E69   E   0.67722  0.82362  0.82544
E70   E   0.75000  0.17638  0.75000
E71   E   0.75000  0.32362  0.75000
E72   E   0.75000  0.67638  0.25000
E73   E   0.75000  0.82362  0.25000
E74   E   0.82278  0.17638  0.32544
E75   E   0.82278  0.25000  0.82544
E76   E   0.82278  0.32362  0.32544
E77   E   0.82278  0.67638  0.67456
E78   E   0.82278  0.75000  0.17456
E79   E   0.82278  0.82362  0.67456
E80   E   0.87458  0.12458  0.87500
E81   E   0.87458  0.12458  0.87500
E82   E   0.87458  0.37542  0.87500
E83   E   0.87458  0.62458  0.12500
E84   E   0.87458  0.87542  0.12500
E85   E   0.92638  0.00000  0.00000
E86   E   0.92638  0.07278  0.42456
E87   E   0.92638  0.42722  0.42456
E88   E   0.92638  0.50000  0.00000
E89   E   0.92638  0.57278  0.57544
E90   E   0.92638  0.92722  0.57544
loop_
