data_wgd_I41/amd:2  hall_number: 427, V_con: 5
_audit_creation_date              2025-03-06
_audit_creation_method            'MOFbuilder_1.0'
_symmetry_space_group_name_H-M    'P1'
_symmetry_Int_Tables_number       1
_symmetry_cell_setting            triclinic
loop_
_symmetry_equiv_pos_as_xyz
  x,y,z
_cell_length_a                    64.8512
_cell_length_b                    64.8512
_cell_length_c                    10.0
_cell_angle_alpha                 90.0
_cell_angle_beta                  90.0
_cell_angle_gamma                 90.0
loop_
_atom_site_label
_atom_site_type_symbol
_atom_site_fract_x
_atom_site_fract_y
_atom_site_fract_z
V1    V   0.07710  0.06927  0.71956
V2    V   0.07710  0.43073  0.71956
V3    V   0.07710  0.56927  0.28044
V4    V   0.07710  0.93073  0.28044
V5    V   0.18073  0.17290  0.03044
V6    V   0.18073  0.32710  0.03044
V7    V   0.18073  0.67290  0.96956
V8    V   0.18073  0.82710  0.96956
V9    V   0.31927  0.17290  0.46956
V10   V   0.31927  0.32710  0.46956
V11   V   0.31927  0.67290  0.53044
V12   V   0.31927  0.82710  0.53044
V13   V   0.42290  0.06927  0.78044
V14   V   0.42290  0.43073  0.78044
V15   V   0.42290  0.56927  0.21956
V16   V   0.42290  0.93073  0.21956
V17   V   0.57710  0.06927  0.78044
V18   V   0.57710  0.43073  0.78044
V19   V   0.57710  0.56927  0.21956
V20   V   0.57710  0.93073  0.21956
V21   V   0.68073  0.17290  0.46956
V22   V   0.68073  0.32710  0.46956
V23   V   0.68073  0.67290  0.53044
V24   V   0.68073  0.82710  0.53044
V25   V   0.81927  0.17290  0.03044
V26   V   0.81927  0.32710  0.03044
V27   V   0.81927  0.67290  0.96956
V28   V   0.81927  0.82710  0.96956
V29   V   0.92290  0.06927  0.71956
V30   V   0.92290  0.43073  0.71956
V31   V   0.92290  0.56927  0.28044
V32   V   0.92290  0.93073  0.28044
E1    E   0.00000  0.06927  0.71956
E2    E   0.00000  0.43073  0.71956
E3    E   0.00000  0.56927  0.28044
E4    E   0.00000  0.93073  0.28044
E5    E   0.07710  0.00000  0.50000
E6    E   0.07710  0.06927  0.21956
E7    E   0.07710  0.43073  0.21956
E8    E   0.07710  0.50000  0.50000
E9    E   0.07710  0.56927  0.78044
E10   E   0.07710  0.93073  0.78044
E11   E   0.12892  0.12108  0.87500
E12   E   0.12892  0.37892  0.87500
E13   E   0.12892  0.62108  0.12500
E14   E   0.12892  0.87892  0.12500
E15   E   0.18073  0.17290  0.53044
E16   E   0.18073  0.25000  0.03044
E17   E   0.18073  0.32710  0.53044
E18   E   0.18073  0.67290  0.46956
E19   E   0.18073  0.75000  0.96956
E20   E   0.18073  0.82710  0.46956
E21   E   0.25000  0.17290  0.25000
E22   E   0.25000  0.32710  0.25000
E23   E   0.25000  0.67290  0.75000
E24   E   0.25000  0.82710  0.75000
E25   E   0.31927  0.17290  0.96956
E26   E   0.31927  0.25000  0.46956
E27   E   0.31927  0.32710  0.96956
E28   E   0.31927  0.67290  0.03044
E29   E   0.31927  0.75000  0.53044
E30   E   0.31927  0.82710  0.03044
E31   E   0.37108  0.12108  0.62500
E32   E   0.37108  0.37892  0.62500
E33   E   0.37108  0.62108  0.37500
E34   E   0.37108  0.87892  0.37500
E35   E   0.42290  0.00000  0.00000
E36   E   0.42290  0.06927  0.28044
E37   E   0.42290  0.43073  0.28044
E38   E   0.42290  0.50000  0.00000
E39   E   0.42290  0.56927  0.71956
E40   E   0.42290  0.93073  0.71956
E41   E   0.50000  0.06927  0.78044
E42   E   0.50000  0.43073  0.78044
E43   E   0.50000  0.56927  0.21956
E44   E   0.50000  0.93073  0.21956
E45   E   0.57710  0.00000  0.00000
E46   E   0.57710  0.06927  0.28044
E47   E   0.57710  0.43073  0.28044
E48   E   0.57710  0.50000  0.00000
E49   E   0.57710  0.56927  0.71956
E50   E   0.57710  0.93073  0.71956
E51   E   0.62892  0.12108  0.62500
E52   E   0.62892  0.37892  0.62500
E53   E   0.62892  0.62108  0.37500
E54   E   0.62892  0.87892  0.37500
E55   E   0.68073  0.17290  0.96956
E56   E   0.68073  0.25000  0.46956
E57   E   0.68073  0.32710  0.96956
E58   E   0.68073  0.67290  0.03044
E59   E   0.68073  0.75000  0.53044
E60   E   0.68073  0.82710  0.03044
E61   E   0.75000  0.17290  0.25000
E62   E   0.75000  0.32710  0.25000
E63   E   0.75000  0.67290  0.75000
E64   E   0.75000  0.82710  0.75000
E65   E   0.81927  0.17290  0.53044
E66   E   0.81927  0.25000  0.03044
E67   E   0.81927  0.32710  0.53044
E68   E   0.81927  0.67290  0.46956
E69   E   0.81927  0.75000  0.96956
E70   E   0.81927  0.82710  0.46956
E71   E   0.87108  0.12108  0.87500
E72   E   0.87108  0.37892  0.87500
E73   E   0.87108  0.62108  0.12500
E74   E   0.87108  0.87892  0.12500
E75   E   0.92290  0.00000  0.50000
E76   E   0.92290  0.06927  0.21956
E77   E   0.92290  0.43073  0.21956
E78   E   0.92290  0.50000  0.50000
E79   E   0.92290  0.56927  0.78044
E80   E   0.92290  0.93073  0.78044
loop_
