data_wgh_I41/acd:2  hall_number: 429, V_con: 5
_audit_creation_date              2025-03-06
_audit_creation_method            'MOFbuilder_1.0'
_symmetry_space_group_name_H-M    'P1'
_symmetry_Int_Tables_number       1
_symmetry_cell_setting            triclinic
loop_
_symmetry_equiv_pos_as_xyz
  x,y,z
_cell_length_a                    55.705400000000004
_cell_length_b                    55.705400000000004
_cell_length_c                    12.956000000000001
_cell_angle_alpha                 90.0
_cell_angle_beta                  90.0
_cell_angle_gamma                 90.0
loop_
_atom_site_label
_atom_site_type_symbol
_atom_site_fract_x
_atom_site_fract_y
_atom_site_fract_z
V1    V   0.06838  0.08492  0.87500
V2    V   0.06838  0.41508  0.37500
V3    V   0.06838  0.58492  0.12500
V4    V   0.06838  0.91508  0.62500
V5    V   0.16508  0.18162  0.37500
V6    V   0.16508  0.31838  0.87500
V7    V   0.16508  0.68162  0.62500
V8    V   0.16508  0.81838  0.12500
V9    V   0.33492  0.18162  0.62500
V10   V   0.33492  0.31838  0.12500
V11   V   0.33492  0.68162  0.37500
V12   V   0.33492  0.81838  0.87500
V13   V   0.43162  0.08492  0.12500
V14   V   0.43162  0.41508  0.62500
V15   V   0.43162  0.58492  0.87500
V16   V   0.43162  0.91508  0.37500
V17   V   0.56838  0.08492  0.62500
V18   V   0.56838  0.41508  0.12500
V19   V   0.56838  0.58492  0.37500
V20   V   0.56838  0.91508  0.87500
V21   V   0.66508  0.18162  0.12500
V22   V   0.66508  0.31838  0.62500
V23   V   0.66508  0.68162  0.87500
V24   V   0.66508  0.81838  0.37500
V25   V   0.83492  0.18162  0.87500
V26   V   0.83492  0.31838  0.37500
V27   V   0.83492  0.68162  0.12500
V28   V   0.83492  0.81838  0.62500
V29   V   0.93162  0.08492  0.37500
V30   V   0.93162  0.41508  0.87500
V31   V   0.93162  0.58492  0.62500
V32   V   0.93162  0.91508  0.12500
E1    E   0.00000  0.08492  0.12500
E2    E   0.00000  0.08492  0.62500
E3    E   0.00000  0.41508  0.12500
E4    E   0.00000  0.41508  0.62500
E5    E   0.00000  0.58492  0.37500
E6    E   0.00000  0.58492  0.87500
E7    E   0.00000  0.91508  0.37500
E8    E   0.00000  0.91508  0.87500
E9    E   0.06838  0.00000  0.75000
E10   E   0.06838  0.50000  0.25000
E11   E   0.11673  0.13327  0.12500
E12   E   0.11673  0.13327  0.62500
E13   E   0.11673  0.36673  0.12500
E14   E   0.11673  0.36673  0.62500
E15   E   0.11673  0.63327  0.37500
E16   E   0.11673  0.63327  0.87500
E17   E   0.11673  0.86673  0.37500
E18   E   0.11673  0.86673  0.87500
E19   E   0.16508  0.25000  0.12500
E20   E   0.16508  0.25000  0.62500
E21   E   0.16508  0.75000  0.37500
E22   E   0.16508  0.75000  0.87500
E23   E   0.25000  0.18162  0.50000
E24   E   0.25000  0.31838  0.00000
E25   E   0.25000  0.68162  0.50000
E26   E   0.25000  0.81838  0.00000
E27   E   0.33492  0.25000  0.37500
E28   E   0.33492  0.25000  0.87500
E29   E   0.33492  0.75000  0.12500
E30   E   0.33492  0.75000  0.62500
E31   E   0.38327  0.13327  0.37500
E32   E   0.38327  0.13327  0.87500
E33   E   0.38327  0.36673  0.37500
E34   E   0.38327  0.36673  0.87500
E35   E   0.38327  0.63327  0.12500
E36   E   0.38327  0.63327  0.62500
E37   E   0.38327  0.86673  0.12500
E38   E   0.38327  0.86673  0.62500
E39   E   0.43162  0.00000  0.25000
E40   E   0.43162  0.50000  0.75000
E41   E   0.50000  0.08492  0.37500
E42   E   0.50000  0.08492  0.87500
E43   E   0.50000  0.41508  0.37500
E44   E   0.50000  0.41508  0.87500
E45   E   0.50000  0.58492  0.12500
E46   E   0.50000  0.58492  0.62500
E47   E   0.50000  0.91508  0.12500
E48   E   0.50000  0.91508  0.62500
E49   E   0.56838  0.00000  0.75000
E50   E   0.56838  0.50000  0.25000
E51   E   0.61673  0.13327  0.37500
E52   E   0.61673  0.13327  0.87500
E53   E   0.61673  0.36673  0.37500
E54   E   0.61673  0.36673  0.87500
E55   E   0.61673  0.63327  0.12500
E56   E   0.61673  0.63327  0.62500
E57   E   0.61673  0.86673  0.12500
E58   E   0.61673  0.86673  0.62500
E59   E   0.66508  0.25000  0.37500
E60   E   0.66508  0.25000  0.87500
E61   E   0.66508  0.75000  0.12500
E62   E   0.66508  0.75000  0.62500
E63   E   0.75000  0.18162  0.00000
E64   E   0.75000  0.31838  0.50000
E65   E   0.75000  0.68162  0.00000
E66   E   0.75000  0.81838  0.50000
E67   E   0.83492  0.25000  0.12500
E68   E   0.83492  0.25000  0.62500
E69   E   0.83492  0.75000  0.37500
E70   E   0.83492  0.75000  0.87500
E71   E   0.88327  0.13327  0.12500
E72   E   0.88327  0.13327  0.62500
E73   E   0.88327  0.36673  0.12500
E74   E   0.88327  0.36673  0.62500
E75   E   0.88327  0.63327  0.37500
E76   E   0.88327  0.63327  0.87500
E77   E   0.88327  0.86673  0.37500
E78   E   0.88327  0.86673  0.87500
E79   E   0.93162  0.00000  0.25000
E80   E   0.93162  0.50000  0.75000
loop_
