data_wgk_I41/acd:2  hall_number: 429, V_con: 5
_audit_creation_date              2025-03-06
_audit_creation_method            'MOFbuilder_1.0'
_symmetry_space_group_name_H-M    'P1'
_symmetry_Int_Tables_number       1
_symmetry_cell_setting            triclinic
loop_
_symmetry_equiv_pos_as_xyz
  x,y,z
_cell_length_a                    32.296299999999995
_cell_length_b                    32.296299999999995
_cell_length_c                    32.9824
_cell_angle_alpha                 90.0
_cell_angle_beta                  90.0
_cell_angle_gamma                 90.0
loop_
_atom_site_label
_atom_site_type_symbol
_atom_site_fract_x
_atom_site_fract_y
_atom_site_fract_z
V1    V   0.09725  0.11780  0.97535
V2    V   0.09725  0.38220  0.47535
V3    V   0.09725  0.61780  0.02465
V4    V   0.09725  0.88220  0.52465
V5    V   0.13220  0.15275  0.27465
V6    V   0.13220  0.34725  0.77465
V7    V   0.13220  0.65275  0.72535
V8    V   0.13220  0.84725  0.22535
V9    V   0.36780  0.15275  0.72535
V10   V   0.36780  0.34725  0.22535
V11   V   0.36780  0.65275  0.27465
V12   V   0.36780  0.84725  0.77465
V13   V   0.40275  0.11780  0.02465
V14   V   0.40275  0.38220  0.52465
V15   V   0.40275  0.61780  0.97535
V16   V   0.40275  0.88220  0.47535
V17   V   0.59725  0.11780  0.52465
V18   V   0.59725  0.38220  0.02465
V19   V   0.59725  0.61780  0.47535
V20   V   0.59725  0.88220  0.97535
V21   V   0.63220  0.15275  0.22535
V22   V   0.63220  0.34725  0.72535
V23   V   0.63220  0.65275  0.77465
V24   V   0.63220  0.84725  0.27465
V25   V   0.86780  0.15275  0.77465
V26   V   0.86780  0.34725  0.27465
V27   V   0.86780  0.65275  0.22535
V28   V   0.86780  0.84725  0.72535
V29   V   0.90275  0.11780  0.47535
V30   V   0.90275  0.38220  0.97535
V31   V   0.90275  0.61780  0.52465
V32   V   0.90275  0.88220  0.02465
E1    E   0.00000  0.00000  0.00000
E2    E   0.00000  0.00000  0.50000
E3    E   0.00000  0.50000  0.00000
E4    E   0.00000  0.50000  0.50000
E5    E   0.01748  0.13528  0.37500
E6    E   0.01748  0.36472  0.87500
E7    E   0.01748  0.63528  0.62500
E8    E   0.01748  0.86472  0.12500
E9    E   0.11472  0.13528  0.12500
E10   E   0.11472  0.36472  0.62500
E11   E   0.11472  0.63528  0.87500
E12   E   0.11472  0.86472  0.37500
E13   E   0.11472  0.13528  0.12500
E14   E   0.11472  0.23252  0.87500
E15   E   0.11472  0.26748  0.37500
E16   E   0.11472  0.36472  0.62500
E17   E   0.11472  0.63528  0.87500
E18   E   0.11472  0.73252  0.12500
E19   E   0.11472  0.76748  0.62500
E20   E   0.11472  0.86472  0.37500
E21   E   0.13220  0.00000  0.25000
E22   E   0.13220  0.50000  0.75000
E23   E   0.25000  0.11780  0.00000
E24   E   0.25000  0.25000  0.25000
E25   E   0.25000  0.25000  0.75000
E26   E   0.25000  0.38220  0.50000
E27   E   0.25000  0.61780  0.00000
E28   E   0.25000  0.75000  0.25000
E29   E   0.25000  0.75000  0.75000
E30   E   0.25000  0.88220  0.50000
E31   E   0.36780  0.00000  0.75000
E32   E   0.36780  0.50000  0.25000
E33   E   0.38528  0.13528  0.87500
E34   E   0.38528  0.23252  0.12500
E35   E   0.38528  0.26748  0.62500
E36   E   0.38528  0.36472  0.37500
E37   E   0.38528  0.63528  0.12500
E38   E   0.38528  0.63528  0.12500
E39   E   0.38528  0.73252  0.87500
E40   E   0.38528  0.76748  0.37500
E41   E   0.38528  0.86472  0.62500
E42   E   0.38528  0.86472  0.62500
E43   E   0.48252  0.13528  0.62500
E44   E   0.48252  0.36472  0.12500
E45   E   0.48252  0.63528  0.37500
E46   E   0.48252  0.86472  0.87500
E47   E   0.50000  0.00000  0.00000
E48   E   0.50000  0.00000  0.50000
E49   E   0.50000  0.50000  0.00000
E50   E   0.50000  0.50000  0.50000
E51   E   0.51748  0.13528  0.12500
E52   E   0.51748  0.36472  0.62500
E53   E   0.51748  0.63528  0.87500
E54   E   0.51748  0.86472  0.37500
E55   E   0.61472  0.13528  0.37500
E56   E   0.61472  0.36472  0.87500
E57   E   0.61472  0.63528  0.62500
E58   E   0.61472  0.86472  0.12500
E59   E   0.61472  0.13528  0.37500
E60   E   0.61472  0.23252  0.62500
E61   E   0.61472  0.26748  0.12500
E62   E   0.61472  0.36472  0.87500
E63   E   0.61472  0.63528  0.62500
E64   E   0.61472  0.73252  0.37500
E65   E   0.61472  0.76748  0.87500
E66   E   0.61472  0.86472  0.12500
E67   E   0.63220  0.00000  0.25000
E68   E   0.63220  0.50000  0.75000
E69   E   0.75000  0.11780  0.50000
E70   E   0.75000  0.25000  0.25000
E71   E   0.75000  0.25000  0.75000
E72   E   0.75000  0.38220  0.00000
E73   E   0.75000  0.61780  0.50000
E74   E   0.75000  0.75000  0.25000
E75   E   0.75000  0.75000  0.75000
E76   E   0.75000  0.88220  0.00000
E77   E   0.86780  0.00000  0.75000
E78   E   0.86780  0.50000  0.25000
E79   E   0.88528  0.13528  0.62500
E80   E   0.88528  0.23252  0.37500
E81   E   0.88528  0.26748  0.87500
E82   E   0.88528  0.36472  0.12500
E83   E   0.88528  0.63528  0.37500
E84   E   0.88528  0.73252  0.62500
E85   E   0.88528  0.76748  0.12500
E86   E   0.88528  0.86472  0.87500
E87   E   0.88528  0.13528  0.62500
E88   E   0.88528  0.36472  0.12500
E89   E   0.88528  0.63528  0.37500
E90   E   0.88528  0.86472  0.87500
E91   E   0.98252  0.13528  0.87500
E92   E   0.98252  0.36472  0.37500
E93   E   0.98252  0.63528  0.12500
E94   E   0.98252  0.86472  0.62500
loop_
