data_wgr_I41/acd:2  hall_number: 429, V_con: 5
_audit_creation_date              2025-03-06
_audit_creation_method            'MOFbuilder_1.0'
_symmetry_space_group_name_H-M    'P1'
_symmetry_Int_Tables_number       1
_symmetry_cell_setting            triclinic
loop_
_symmetry_equiv_pos_as_xyz
  x,y,z
_cell_length_a                    19.5782
_cell_length_b                    19.5782
_cell_length_c                    74.36410000000001
_cell_angle_alpha                 90.0
_cell_angle_beta                  90.0
_cell_angle_gamma                 90.0
loop_
_atom_site_label
_atom_site_type_symbol
_atom_site_fract_x
_atom_site_fract_y
_atom_site_fract_z
V1    V   0.16151  0.05217  0.43693
V2    V   0.16151  0.44783  0.93693
V3    V   0.16151  0.55217  0.56307
V4    V   0.16151  0.94783  0.06307
V5    V   0.19783  0.08849  0.81307
V6    V   0.19783  0.41151  0.31307
V7    V   0.19783  0.58849  0.18693
V8    V   0.19783  0.91151  0.68693
V9    V   0.30217  0.08849  0.18693
V10   V   0.30217  0.41151  0.68693
V11   V   0.30217  0.58849  0.81307
V12   V   0.30217  0.91151  0.31307
V13   V   0.33849  0.05217  0.56307
V14   V   0.33849  0.44783  0.06307
V15   V   0.33849  0.55217  0.43693
V16   V   0.33849  0.94783  0.93693
V17   V   0.66151  0.05217  0.06307
V18   V   0.66151  0.44783  0.56307
V19   V   0.66151  0.55217  0.93693
V20   V   0.66151  0.94783  0.43693
V21   V   0.69783  0.08849  0.68693
V22   V   0.69783  0.41151  0.18693
V23   V   0.69783  0.58849  0.31307
V24   V   0.69783  0.91151  0.81307
V25   V   0.80217  0.08849  0.31307
V26   V   0.80217  0.41151  0.81307
V27   V   0.80217  0.58849  0.68693
V28   V   0.80217  0.91151  0.18693
V29   V   0.83849  0.05217  0.93693
V30   V   0.83849  0.44783  0.43693
V31   V   0.83849  0.55217  0.06307
V32   V   0.83849  0.94783  0.56307
E1    E   0.00000  0.25000  0.31307
E2    E   0.00000  0.25000  0.43693
E3    E   0.00000  0.25000  0.81307
E4    E   0.00000  0.25000  0.93693
E5    E   0.00000  0.75000  0.06307
E6    E   0.00000  0.75000  0.18693
E7    E   0.00000  0.75000  0.56307
E8    E   0.00000  0.75000  0.68693
E9    E   0.08849  0.00000  0.56307
E10   E   0.08849  0.00000  0.93693
E11   E   0.08849  0.50000  0.06307
E12   E   0.08849  0.50000  0.43693
E13   E   0.19783  0.00000  0.75000
E14   E   0.19783  0.50000  0.25000
E15   E   0.23184  0.01816  0.12500
E16   E   0.23184  0.01816  0.12500
E17   E   0.23184  0.48184  0.62500
E18   E   0.23184  0.51816  0.87500
E19   E   0.23184  0.98184  0.37500
E20   E   0.25000  0.05217  0.50000
E21   E   0.25000  0.16151  0.31307
E22   E   0.25000  0.16151  0.68693
E23   E   0.25000  0.33849  0.18693
E24   E   0.25000  0.33849  0.81307
E25   E   0.25000  0.44783  0.00000
E26   E   0.25000  0.55217  0.50000
E27   E   0.25000  0.66151  0.31307
E28   E   0.25000  0.66151  0.68693
E29   E   0.25000  0.83849  0.18693
E30   E   0.25000  0.83849  0.81307
E31   E   0.25000  0.94783  0.00000
E32   E   0.26816  0.01816  0.87500
E33   E   0.26816  0.01816  0.87500
E34   E   0.26816  0.48184  0.37500
E35   E   0.26816  0.51816  0.12500
E36   E   0.26816  0.98184  0.62500
E37   E   0.30217  0.00000  0.25000
E38   E   0.30217  0.50000  0.75000
E39   E   0.41151  0.00000  0.06307
E40   E   0.41151  0.00000  0.43693
E41   E   0.41151  0.50000  0.56307
E42   E   0.41151  0.50000  0.93693
E43   E   0.50000  0.25000  0.06307
E44   E   0.50000  0.25000  0.18693
E45   E   0.50000  0.25000  0.56307
E46   E   0.50000  0.25000  0.68693
E47   E   0.50000  0.75000  0.31307
E48   E   0.50000  0.75000  0.43693
E49   E   0.50000  0.75000  0.81307
E50   E   0.50000  0.75000  0.93693
E51   E   0.58849  0.00000  0.56307
E52   E   0.58849  0.00000  0.93693
E53   E   0.58849  0.50000  0.06307
E54   E   0.58849  0.50000  0.43693
E55   E   0.69783  0.00000  0.75000
E56   E   0.69783  0.50000  0.25000
E57   E   0.73184  0.01816  0.37500
E58   E   0.73184  0.01816  0.37500
E59   E   0.73184  0.48184  0.87500
E60   E   0.73184  0.51816  0.62500
E61   E   0.73184  0.98184  0.12500
E62   E   0.75000  0.05217  0.00000
E63   E   0.75000  0.16151  0.18693
E64   E   0.75000  0.16151  0.81307
E65   E   0.75000  0.33849  0.31307
E66   E   0.75000  0.33849  0.68693
E67   E   0.75000  0.44783  0.50000
E68   E   0.75000  0.55217  0.00000
E69   E   0.75000  0.66151  0.18693
E70   E   0.75000  0.66151  0.81307
E71   E   0.75000  0.83849  0.31307
E72   E   0.75000  0.83849  0.68693
E73   E   0.75000  0.94783  0.50000
E74   E   0.76816  0.01816  0.62500
E75   E   0.76816  0.01816  0.62500
E76   E   0.76816  0.48184  0.12500
E77   E   0.76816  0.51816  0.37500
E78   E   0.76816  0.98184  0.87500
E79   E   0.80217  0.00000  0.25000
E80   E   0.80217  0.50000  0.75000
E81   E   0.91151  0.00000  0.06307
E82   E   0.91151  0.00000  0.43693
E83   E   0.91151  0.50000  0.56307
E84   E   0.91151  0.50000  0.93693
loop_
