data_wgy_I4/mmm  hall_number: 424, V_con: 6
_audit_creation_date              2025-03-06
_audit_creation_method            'MOFbuilder_1.0'
_symmetry_space_group_name_H-M    'P1'
_symmetry_Int_Tables_number       1
_symmetry_cell_setting            triclinic
loop_
_symmetry_equiv_pos_as_xyz
  x,y,z
_cell_length_a                    46.3898
_cell_length_b                    46.3898
_cell_length_c                    9.9999
_cell_angle_alpha                 90.0
_cell_angle_beta                  90.0
_cell_angle_gamma                 90.0
loop_
_atom_site_label
_atom_site_type_symbol
_atom_site_fract_x
_atom_site_fract_y
_atom_site_fract_z
V1    V   0.10778  0.26021  0.50000
V2    V   0.10778  0.73979  0.50000
V3    V   0.23979  0.39222  0.00000
V4    V   0.23979  0.60778  0.00000
V5    V   0.26021  0.10778  0.50000
V6    V   0.26021  0.89222  0.50000
V7    V   0.39222  0.23979  0.00000
V8    V   0.39222  0.76021  0.00000
V9    V   0.60778  0.23979  0.00000
V10   V   0.60778  0.76021  0.00000
V11   V   0.73979  0.10778  0.50000
V12   V   0.73979  0.89222  0.50000
V13   V   0.76021  0.39222  0.00000
V14   V   0.76021  0.60778  0.00000
V15   V   0.89222  0.26021  0.50000
V16   V   0.89222  0.73979  0.50000
E1    E   0.00000  0.26021  0.50000
E2    E   0.00000  0.73979  0.50000
E3    E   0.10778  0.26021  0.00000
E4    E   0.10778  0.73979  0.00000
E5    E   0.17379  0.32621  0.25000
E6    E   0.17379  0.32621  0.75000
E7    E   0.17379  0.67379  0.25000
E8    E   0.17379  0.67379  0.75000
E9    E   0.18400  0.18400  0.50000
E10   E   0.18400  0.81600  0.50000
E11   E   0.23979  0.39222  0.50000
E12   E   0.23979  0.50000  0.00000
E13   E   0.23979  0.60778  0.50000
E14   E   0.26021  0.00000  0.50000
E15   E   0.26021  0.10778  0.00000
E16   E   0.26021  0.89222  0.00000
E17   E   0.31600  0.31600  0.00000
E18   E   0.31600  0.68400  0.00000
E19   E   0.32621  0.17379  0.25000
E20   E   0.32621  0.17379  0.75000
E21   E   0.32621  0.82621  0.25000
E22   E   0.32621  0.82621  0.75000
E23   E   0.39222  0.23979  0.50000
E24   E   0.39222  0.76021  0.50000
E25   E   0.50000  0.23979  0.00000
E26   E   0.50000  0.76021  0.00000
E27   E   0.60778  0.23979  0.50000
E28   E   0.60778  0.76021  0.50000
E29   E   0.67379  0.17379  0.25000
E30   E   0.67379  0.17379  0.75000
E31   E   0.67379  0.82621  0.25000
E32   E   0.67379  0.82621  0.75000
E33   E   0.68400  0.31600  0.00000
E34   E   0.68400  0.68400  0.00000
E35   E   0.73979  0.00000  0.50000
E36   E   0.73979  0.10778  0.00000
E37   E   0.73979  0.89222  0.00000
E38   E   0.76021  0.39222  0.50000
E39   E   0.76021  0.50000  0.00000
E40   E   0.76021  0.60778  0.50000
E41   E   0.81600  0.18400  0.50000
E42   E   0.81600  0.81600  0.50000
E43   E   0.82621  0.32621  0.25000
E44   E   0.82621  0.32621  0.75000
E45   E   0.82621  0.67379  0.25000
E46   E   0.82621  0.67379  0.75000
E47   E   0.89222  0.26021  0.00000
E48   E   0.89222  0.73979  0.00000
loop_
