data_wgz_I422  hall_number: 374, V_con: 6
_audit_creation_date              2025-03-06
_audit_creation_method            'MOFbuilder_1.0'
_symmetry_space_group_name_H-M    'P1'
_symmetry_Int_Tables_number       1
_symmetry_cell_setting            triclinic
loop_
_symmetry_equiv_pos_as_xyz
  x,y,z
_cell_length_a                    21.474600000000002
_cell_length_b                    21.474600000000002
_cell_length_c                    36.3636
_cell_angle_alpha                 90.0
_cell_angle_beta                  90.0
_cell_angle_gamma                 90.0
loop_
_atom_site_label
_atom_site_type_symbol
_atom_site_fract_x
_atom_site_fract_y
_atom_site_fract_z
V1    V   0.12601  0.30421  0.38438
V2    V   0.12601  0.69579  0.61562
V3    V   0.19579  0.37399  0.11562
V4    V   0.19579  0.62601  0.88438
V5    V   0.30421  0.12601  0.61562
V6    V   0.30421  0.87399  0.38438
V7    V   0.37399  0.19579  0.88438
V8    V   0.37399  0.80421  0.11562
V9    V   0.62601  0.19579  0.11562
V10   V   0.62601  0.80421  0.88438
V11   V   0.69579  0.12601  0.38438
V12   V   0.69579  0.87399  0.61562
V13   V   0.80421  0.37399  0.88438
V14   V   0.80421  0.62601  0.11562
V15   V   0.87399  0.30421  0.61562
V16   V   0.87399  0.69579  0.38438
E1    E   0.00000  0.30421  0.50000
E2    E   0.00000  0.50000  0.11562
E3    E   0.00000  0.50000  0.38438
E4    E   0.00000  0.50000  0.61562
E5    E   0.00000  0.50000  0.88438
E6    E   0.00000  0.69579  0.50000
E7    E   0.08910  0.21511  0.61562
E8    E   0.08910  0.78489  0.38438
E9    E   0.16090  0.33910  0.25000
E10   E   0.16090  0.66090  0.75000
E11   E   0.19579  0.50000  0.00000
E12   E   0.21511  0.08910  0.38438
E13   E   0.21511  0.21511  0.50000
E14   E   0.21511  0.78489  0.50000
E15   E   0.21511  0.91090  0.61562
E16   E   0.28489  0.28489  0.00000
E17   E   0.28489  0.41090  0.88438
E18   E   0.28489  0.58910  0.11562
E19   E   0.28489  0.71511  0.00000
E20   E   0.30421  0.00000  0.50000
E21   E   0.33910  0.16090  0.75000
E22   E   0.33910  0.83910  0.25000
E23   E   0.41090  0.28489  0.11562
E24   E   0.41090  0.71511  0.88438
E25   E   0.50000  0.00000  0.11562
E26   E   0.50000  0.00000  0.38438
E27   E   0.50000  0.00000  0.61562
E28   E   0.50000  0.00000  0.88438
E29   E   0.50000  0.19579  0.00000
E30   E   0.50000  0.80421  0.00000
E31   E   0.58910  0.28489  0.88438
E32   E   0.58910  0.71511  0.11562
E33   E   0.66090  0.16090  0.25000
E34   E   0.66090  0.83910  0.75000
E35   E   0.69579  0.00000  0.50000
E36   E   0.71511  0.28489  0.00000
E37   E   0.71511  0.41090  0.11562
E38   E   0.71511  0.58910  0.88438
E39   E   0.71511  0.71511  0.00000
E40   E   0.78489  0.08910  0.61562
E41   E   0.78489  0.21511  0.50000
E42   E   0.78489  0.78489  0.50000
E43   E   0.78489  0.91090  0.38438
E44   E   0.80421  0.50000  0.00000
E45   E   0.83910  0.33910  0.75000
E46   E   0.83910  0.66090  0.25000
E47   E   0.91090  0.21511  0.38438
E48   E   0.91090  0.78489  0.61562
loop_
