data_wha_P-421c  hall_number: 391, V_con: 6
_audit_creation_date              2025-03-06
_audit_creation_method            'MOFbuilder_1.0'
_symmetry_space_group_name_H-M    'P1'
_symmetry_Int_Tables_number       1
_symmetry_cell_setting            triclinic
loop_
_symmetry_equiv_pos_as_xyz
  x,y,z
_cell_length_a                    19.2701
_cell_length_b                    19.2701
_cell_length_c                    18.709
_cell_angle_alpha                 90.0
_cell_angle_beta                  90.0
_cell_angle_gamma                 90.0
loop_
_atom_site_label
_atom_site_type_symbol
_atom_site_fract_x
_atom_site_fract_y
_atom_site_fract_z
V1    V   0.13889  0.76859  0.18107
V2    V   0.23141  0.13889  0.81893
V3    V   0.26859  0.63889  0.68107
V4    V   0.36111  0.26859  0.31893
V5    V   0.63889  0.73141  0.31893
V6    V   0.73141  0.36111  0.68107
V7    V   0.76859  0.86111  0.81893
V8    V   0.86111  0.23141  0.18107
E1    E   0.04626  0.18515  0.00000
E2    E   0.11111  0.25000  0.25000
E3    E   0.18515  0.95374  0.00000
E4    E   0.20374  0.70374  0.43107
E5    E   0.20374  0.70374  0.93107
E6    E   0.25000  0.38889  0.75000
E7    E   0.25000  0.88889  0.75000
E8    E   0.29626  0.20374  0.56893
E9    E   0.29626  0.20374  0.06893
E10   E   0.31485  0.45374  0.50000
E11   E   0.38889  0.75000  0.25000
E12   E   0.45374  0.68515  0.50000
E13   E   0.54626  0.31485  0.50000
E14   E   0.61111  0.25000  0.25000
E15   E   0.68515  0.54626  0.50000
E16   E   0.70374  0.79626  0.06893
E17   E   0.70374  0.79626  0.56893
E18   E   0.75000  0.11111  0.75000
E19   E   0.75000  0.61111  0.75000
E20   E   0.79626  0.29626  0.43107
E21   E   0.79626  0.29626  0.93107
E22   E   0.81485  0.04626  0.00000
E23   E   0.88889  0.75000  0.25000
E24   E   0.95374  0.81485  0.00000
loop_
