data_whe_P4/mcc  hall_number: 401, V_con: 6
_audit_creation_date              2025-03-06
_audit_creation_method            'MOFbuilder_1.0'
_symmetry_space_group_name_H-M    'P1'
_symmetry_Int_Tables_number       1
_symmetry_cell_setting            triclinic
loop_
_symmetry_equiv_pos_as_xyz
  x,y,z
_cell_length_a                    21.4748
_cell_length_b                    21.4748
_cell_length_c                    36.8178
_cell_angle_alpha                 90.0
_cell_angle_beta                  90.0
_cell_angle_gamma                 90.0
loop_
_atom_site_label
_atom_site_type_symbol
_atom_site_fract_x
_atom_site_fract_y
_atom_site_fract_z
V1    V   0.12600  0.30421  0.13580
V2    V   0.12600  0.30421  0.86420
V3    V   0.12600  0.69579  0.36420
V4    V   0.12600  0.69579  0.63580
V5    V   0.30421  0.12600  0.36420
V6    V   0.30421  0.12600  0.63580
V7    V   0.30421  0.87400  0.13580
V8    V   0.30421  0.87400  0.86420
V9    V   0.69579  0.12600  0.13580
V10   V   0.69579  0.12600  0.86420
V11   V   0.69579  0.87400  0.36420
V12   V   0.69579  0.87400  0.63580
V13   V   0.87400  0.30421  0.36420
V14   V   0.87400  0.30421  0.63580
V15   V   0.87400  0.69579  0.13580
V16   V   0.87400  0.69579  0.86420
E1    E   0.00000  0.30421  0.25000
E2    E   0.00000  0.30421  0.75000
E3    E   0.00000  0.50000  0.13580
E4    E   0.00000  0.50000  0.36420
E5    E   0.00000  0.50000  0.63580
E6    E   0.00000  0.50000  0.86420
E7    E   0.00000  0.69579  0.25000
E8    E   0.00000  0.69579  0.75000
E9    E   0.08910  0.21511  0.36420
E10   E   0.08910  0.21511  0.63580
E11   E   0.08910  0.78489  0.13580
E12   E   0.08910  0.78489  0.86420
E13   E   0.12600  0.30421  0.00000
E14   E   0.12600  0.69579  0.50000
E15   E   0.21511  0.08910  0.13580
E16   E   0.21511  0.08910  0.86420
E17   E   0.21511  0.21511  0.25000
E18   E   0.21511  0.21511  0.75000
E19   E   0.21511  0.78489  0.25000
E20   E   0.21511  0.78489  0.75000
E21   E   0.21511  0.91090  0.36420
E22   E   0.21511  0.91090  0.63580
E23   E   0.30421  0.00000  0.25000
E24   E   0.30421  0.00000  0.75000
E25   E   0.30421  0.12600  0.50000
E26   E   0.30421  0.87400  0.00000
E27   E   0.50000  0.00000  0.13580
E28   E   0.50000  0.00000  0.36420
E29   E   0.50000  0.00000  0.63580
E30   E   0.50000  0.00000  0.86420
E31   E   0.69579  0.00000  0.25000
E32   E   0.69579  0.00000  0.75000
E33   E   0.69579  0.12600  0.00000
E34   E   0.69579  0.87400  0.50000
E35   E   0.78489  0.08910  0.36420
E36   E   0.78489  0.08910  0.63580
E37   E   0.78489  0.21511  0.25000
E38   E   0.78489  0.21511  0.75000
E39   E   0.78489  0.78489  0.25000
E40   E   0.78489  0.78489  0.75000
E41   E   0.78489  0.91090  0.13580
E42   E   0.78489  0.91090  0.86420
E43   E   0.87400  0.30421  0.50000
E44   E   0.87400  0.69579  0.00000
E45   E   0.91090  0.21511  0.13580
E46   E   0.91090  0.21511  0.86420
E47   E   0.91090  0.78489  0.36420
E48   E   0.91090  0.78489  0.63580
loop_
