data_whl_P42/nbc:2  hall_number: 415, V_con: 6
_audit_creation_date              2025-03-06
_audit_creation_method            'MOFbuilder_1.0'
_symmetry_space_group_name_H-M    'P1'
_symmetry_Int_Tables_number       1
_symmetry_cell_setting            triclinic
loop_
_symmetry_equiv_pos_as_xyz
  x,y,z
_cell_length_a                    45.33540000000001
_cell_length_b                    45.33540000000001
_cell_length_c                    9.9999
_cell_angle_alpha                 90.0
_cell_angle_beta                  90.0
_cell_angle_gamma                 90.0
loop_
_atom_site_label
_atom_site_type_symbol
_atom_site_fract_x
_atom_site_fract_y
_atom_site_fract_z
V1    V   0.00695  0.64202  0.39813
V2    V   0.00695  0.85798  0.60187
V3    V   0.14202  0.50695  0.89813
V4    V   0.14202  0.99305  0.10187
V5    V   0.35798  0.50695  0.10187
V6    V   0.35798  0.99305  0.89813
V7    V   0.49305  0.64202  0.60187
V8    V   0.49305  0.85798  0.39813
V9    V   0.50695  0.14202  0.60187
V10   V   0.50695  0.35798  0.39813
V11   V   0.64202  0.00695  0.10187
V12   V   0.64202  0.49305  0.89813
V13   V   0.85798  0.00695  0.89813
V14   V   0.85798  0.49305  0.10187
V15   V   0.99305  0.14202  0.39813
V16   V   0.99305  0.35798  0.60187
E1    E   0.00695  0.64202  0.89813
E2    E   0.00695  0.75000  0.50000
E3    E   0.00695  0.85798  0.10187
E4    E   0.06754  0.06754  0.25000
E5    E   0.06754  0.43246  0.75000
E6    E   0.07449  0.57449  0.64813
E7    E   0.07449  0.92551  0.35187
E8    E   0.07449  0.57449  0.14813
E9    E   0.07449  0.92551  0.85187
E10   E   0.14202  0.50695  0.39813
E11   E   0.14202  0.99305  0.60187
E12   E   0.25000  0.50695  0.00000
E13   E   0.25000  0.99305  0.00000
E14   E   0.35798  0.50695  0.60187
E15   E   0.35798  0.99305  0.39813
E16   E   0.42551  0.57449  0.85187
E17   E   0.42551  0.92551  0.14813
E18   E   0.42551  0.57449  0.35187
E19   E   0.42551  0.92551  0.64813
E20   E   0.43246  0.06754  0.75000
E21   E   0.43246  0.43246  0.25000
E22   E   0.49305  0.64202  0.10187
E23   E   0.49305  0.75000  0.50000
E24   E   0.49305  0.85798  0.89813
E25   E   0.50695  0.14202  0.10187
E26   E   0.50695  0.25000  0.50000
E27   E   0.50695  0.35798  0.89813
E28   E   0.56754  0.56754  0.75000
E29   E   0.56754  0.93246  0.25000
E30   E   0.57449  0.07449  0.85187
E31   E   0.57449  0.07449  0.35187
E32   E   0.57449  0.42551  0.64813
E33   E   0.57449  0.42551  0.14813
E34   E   0.64202  0.00695  0.60187
E35   E   0.64202  0.49305  0.39813
E36   E   0.75000  0.00695  0.00000
E37   E   0.75000  0.49305  0.00000
E38   E   0.85798  0.00695  0.39813
E39   E   0.85798  0.49305  0.60187
E40   E   0.92551  0.07449  0.14813
E41   E   0.92551  0.07449  0.64813
E42   E   0.92551  0.42551  0.35187
E43   E   0.92551  0.42551  0.85187
E44   E   0.93246  0.56754  0.25000
E45   E   0.93246  0.93246  0.75000
E46   E   0.99305  0.14202  0.89813
E47   E   0.99305  0.25000  0.50000
E48   E   0.99305  0.35798  0.10187
loop_
