data_whm_P42/nbc:2  hall_number: 415, V_con: 6
_audit_creation_date              2025-03-06
_audit_creation_method            'MOFbuilder_1.0'
_symmetry_space_group_name_H-M    'P1'
_symmetry_Int_Tables_number       1
_symmetry_cell_setting            triclinic
loop_
_symmetry_equiv_pos_as_xyz
  x,y,z
_cell_length_a                    32.4533
_cell_length_b                    32.4533
_cell_length_c                    19.043
_cell_angle_alpha                 90.0
_cell_angle_beta                  90.0
_cell_angle_gamma                 90.0
loop_
_atom_site_label
_atom_site_type_symbol
_atom_site_fract_x
_atom_site_fract_y
_atom_site_fract_z
V1    V   0.07182  0.63842  0.81896
V2    V   0.07182  0.86158  0.18104
V3    V   0.13842  0.57182  0.31896
V4    V   0.13842  0.92818  0.68104
V5    V   0.36158  0.57182  0.68104
V6    V   0.36158  0.92818  0.31896
V7    V   0.42818  0.63842  0.18104
V8    V   0.42818  0.86158  0.81896
V9    V   0.57182  0.13842  0.18104
V10   V   0.57182  0.36158  0.81896
V11   V   0.63842  0.07182  0.68104
V12   V   0.63842  0.42818  0.31896
V13   V   0.86158  0.07182  0.31896
V14   V   0.86158  0.42818  0.68104
V15   V   0.92818  0.13842  0.81896
V16   V   0.92818  0.36158  0.18104
E1    E   0.03330  0.03330  0.75000
E2    E   0.03330  0.46670  0.25000
E3    E   0.03330  0.03330  0.75000
E4    E   0.03330  0.46670  0.25000
E5    E   0.07182  0.75000  0.00000
E6    E   0.10512  0.60512  0.06896
E7    E   0.10512  0.71670  0.25000
E8    E   0.10512  0.78330  0.75000
E9    E   0.10512  0.89488  0.93104
E10   E   0.10512  0.60512  0.56896
E11   E   0.10512  0.89488  0.43104
E12   E   0.21670  0.60512  0.75000
E13   E   0.21670  0.89488  0.25000
E14   E   0.25000  0.57182  0.50000
E15   E   0.25000  0.92818  0.50000
E16   E   0.28330  0.60512  0.25000
E17   E   0.28330  0.89488  0.75000
E18   E   0.39488  0.60512  0.43104
E19   E   0.39488  0.60512  0.93104
E20   E   0.39488  0.71670  0.75000
E21   E   0.39488  0.78330  0.25000
E22   E   0.39488  0.89488  0.06896
E23   E   0.39488  0.89488  0.56896
E24   E   0.42818  0.75000  0.00000
E25   E   0.46670  0.03330  0.25000
E26   E   0.46670  0.03330  0.25000
E27   E   0.46670  0.46670  0.75000
E28   E   0.53330  0.53330  0.25000
E29   E   0.53330  0.96670  0.75000
E30   E   0.57182  0.25000  0.00000
E31   E   0.60512  0.10512  0.43104
E32   E   0.60512  0.10512  0.93104
E33   E   0.60512  0.21670  0.75000
E34   E   0.60512  0.28330  0.25000
E35   E   0.60512  0.39488  0.06896
E36   E   0.60512  0.39488  0.56896
E37   E   0.71670  0.10512  0.25000
E38   E   0.71670  0.39488  0.75000
E39   E   0.75000  0.07182  0.50000
E40   E   0.75000  0.42818  0.50000
E41   E   0.78330  0.10512  0.75000
E42   E   0.78330  0.39488  0.25000
E43   E   0.89488  0.10512  0.56896
E44   E   0.89488  0.10512  0.06896
E45   E   0.89488  0.21670  0.25000
E46   E   0.89488  0.28330  0.75000
E47   E   0.89488  0.39488  0.43104
E48   E   0.89488  0.39488  0.93104
E49   E   0.92818  0.25000  0.00000
E50   E   0.96670  0.53330  0.75000
E51   E   0.96670  0.96670  0.25000
loop_
