data_whn_P42/nbc:2  hall_number: 415, V_con: 6
_audit_creation_date              2025-03-06
_audit_creation_method            'MOFbuilder_1.0'
_symmetry_space_group_name_H-M    'P1'
_symmetry_Int_Tables_number       1
_symmetry_cell_setting            triclinic
loop_
_symmetry_equiv_pos_as_xyz
  x,y,z
_cell_length_a                    19.8351
_cell_length_b                    19.8351
_cell_length_c                    35.2771
_cell_angle_alpha                 90.0
_cell_angle_beta                  90.0
_cell_angle_gamma                 90.0
loop_
_atom_site_label
_atom_site_type_symbol
_atom_site_fract_x
_atom_site_fract_y
_atom_site_fract_z
V1    V   0.03230  0.62292  0.87760
V2    V   0.03230  0.87708  0.12240
V3    V   0.12292  0.53230  0.37760
V4    V   0.12292  0.96770  0.62240
V5    V   0.37708  0.53230  0.62240
V6    V   0.37708  0.96770  0.37760
V7    V   0.46770  0.62292  0.12240
V8    V   0.46770  0.87708  0.87760
V9    V   0.53230  0.12292  0.12240
V10   V   0.53230  0.37708  0.87760
V11   V   0.62292  0.03230  0.62240
V12   V   0.62292  0.46770  0.37760
V13   V   0.87708  0.03230  0.37760
V14   V   0.87708  0.46770  0.62240
V15   V   0.96770  0.12292  0.87760
V16   V   0.96770  0.37708  0.12240
E1    E   0.00000  0.00000  0.00000
E2    E   0.00000  0.00000  0.50000
E3    E   0.00000  0.12708  0.12240
E4    E   0.00000  0.37292  0.87760
E5    E   0.00000  0.50000  0.00000
E6    E   0.00000  0.50000  0.50000
E7    E   0.00000  0.62708  0.12240
E8    E   0.00000  0.87292  0.87760
E9    E   0.03230  0.75000  0.00000
E10   E   0.04531  0.04531  0.75000
E11   E   0.04531  0.45469  0.25000
E12   E   0.04531  0.04531  0.75000
E13   E   0.04531  0.45469  0.25000
E14   E   0.12708  0.00000  0.37760
E15   E   0.12708  0.50000  0.62240
E16   E   0.25000  0.53230  0.50000
E17   E   0.25000  0.75000  0.12240
E18   E   0.25000  0.75000  0.37760
E19   E   0.25000  0.75000  0.62240
E20   E   0.25000  0.75000  0.87760
E21   E   0.25000  0.96770  0.50000
E22   E   0.37292  0.00000  0.62240
E23   E   0.37292  0.50000  0.37760
E24   E   0.45469  0.04531  0.25000
E25   E   0.45469  0.04531  0.25000
E26   E   0.45469  0.45469  0.75000
E27   E   0.46770  0.75000  0.00000
E28   E   0.50000  0.00000  0.00000
E29   E   0.50000  0.00000  0.50000
E30   E   0.50000  0.12708  0.87760
E31   E   0.50000  0.37292  0.12240
E32   E   0.50000  0.50000  0.00000
E33   E   0.50000  0.50000  0.50000
E34   E   0.50000  0.62708  0.87760
E35   E   0.50000  0.87292  0.12240
E36   E   0.53230  0.25000  0.00000
E37   E   0.54531  0.54531  0.25000
E38   E   0.54531  0.95469  0.75000
E39   E   0.62708  0.00000  0.37760
E40   E   0.62708  0.50000  0.62240
E41   E   0.75000  0.03230  0.50000
E42   E   0.75000  0.25000  0.12240
E43   E   0.75000  0.25000  0.37760
E44   E   0.75000  0.25000  0.62240
E45   E   0.75000  0.25000  0.87760
E46   E   0.75000  0.46770  0.50000
E47   E   0.87292  0.00000  0.62240
E48   E   0.87292  0.50000  0.37760
E49   E   0.95469  0.54531  0.75000
E50   E   0.95469  0.95469  0.25000
E51   E   0.96770  0.25000  0.00000
loop_
