data_whp_P42/ncm:2  hall_number: 423, V_con: 6
_audit_creation_date              2025-03-06
_audit_creation_method            'MOFbuilder_1.0'
_symmetry_space_group_name_H-M    'P1'
_symmetry_Int_Tables_number       1
_symmetry_cell_setting            triclinic
loop_
_symmetry_equiv_pos_as_xyz
  x,y,z
_cell_length_a                    31.852
_cell_length_b                    31.852
_cell_length_c                    17.9803
_cell_angle_alpha                 90.0
_cell_angle_beta                  90.0
_cell_angle_gamma                 90.0
loop_
_atom_site_label
_atom_site_type_symbol
_atom_site_fract_x
_atom_site_fract_y
_atom_site_fract_z
V1    V   0.04074  0.68126  0.21528
V2    V   0.04074  0.81874  0.71528
V3    V   0.18126  0.54074  0.78472
V4    V   0.18126  0.95926  0.28472
V5    V   0.31874  0.54074  0.28472
V6    V   0.31874  0.95926  0.78472
V7    V   0.45926  0.68126  0.71528
V8    V   0.45926  0.81874  0.21528
V9    V   0.54074  0.18126  0.78472
V10   V   0.54074  0.31874  0.28472
V11   V   0.68126  0.04074  0.21528
V12   V   0.68126  0.45926  0.71528
V13   V   0.81874  0.04074  0.71528
V14   V   0.81874  0.45926  0.21528
V15   V   0.95926  0.18126  0.28472
V16   V   0.95926  0.31874  0.78472
E1    E   0.04074  0.75000  0.46528
E2    E   0.04074  0.75000  0.96528
E3    E   0.07026  0.07026  0.28472
E4    E   0.07026  0.42974  0.78472
E5    E   0.11100  0.61100  0.00000
E6    E   0.11100  0.67974  0.75000
E7    E   0.11100  0.82026  0.25000
E8    E   0.11100  0.88900  0.50000
E9    E   0.17974  0.61100  0.25000
E10   E   0.17974  0.88900  0.75000
E11   E   0.25000  0.54074  0.03472
E12   E   0.25000  0.54074  0.53472
E13   E   0.25000  0.95926  0.03472
E14   E   0.25000  0.95926  0.53472
E15   E   0.32026  0.61100  0.75000
E16   E   0.32026  0.88900  0.25000
E17   E   0.38900  0.61100  0.50000
E18   E   0.38900  0.67974  0.25000
E19   E   0.38900  0.82026  0.75000
E20   E   0.38900  0.88900  0.00000
E21   E   0.42974  0.07026  0.78472
E22   E   0.42974  0.42974  0.28472
E23   E   0.45926  0.75000  0.46528
E24   E   0.45926  0.75000  0.96528
E25   E   0.54074  0.25000  0.03472
E26   E   0.54074  0.25000  0.53472
E27   E   0.57026  0.57026  0.71528
E28   E   0.57026  0.92974  0.21528
E29   E   0.61100  0.11100  0.00000
E30   E   0.61100  0.17974  0.25000
E31   E   0.61100  0.32026  0.75000
E32   E   0.61100  0.38900  0.50000
E33   E   0.67974  0.11100  0.75000
E34   E   0.67974  0.38900  0.25000
E35   E   0.75000  0.04074  0.46528
E36   E   0.75000  0.04074  0.96528
E37   E   0.75000  0.45926  0.46528
E38   E   0.75000  0.45926  0.96528
E39   E   0.82026  0.11100  0.25000
E40   E   0.82026  0.38900  0.75000
E41   E   0.88900  0.11100  0.50000
E42   E   0.88900  0.17974  0.75000
E43   E   0.88900  0.32026  0.25000
E44   E   0.88900  0.38900  0.00000
E45   E   0.92974  0.57026  0.21528
E46   E   0.92974  0.92974  0.71528
E47   E   0.95926  0.25000  0.03472
E48   E   0.95926  0.25000  0.53472
loop_
