data_wht_P41212  hall_number: 369, V_con: 6
_audit_creation_date              2025-03-06
_audit_creation_method            'MOFbuilder_1.0'
_symmetry_space_group_name_H-M    'P1'
_symmetry_Int_Tables_number       1
_symmetry_cell_setting            triclinic
loop_
_symmetry_equiv_pos_as_xyz
  x,y,z
_cell_length_a                    16.9507
_cell_length_b                    16.9507
_cell_length_c                    29.9016
_cell_angle_alpha                 90.0
_cell_angle_beta                  90.0
_cell_angle_gamma                 90.0
loop_
_atom_site_label
_atom_site_type_symbol
_atom_site_fract_x
_atom_site_fract_y
_atom_site_fract_z
V1    V   0.10444  0.24336  0.15767
V2    V   0.24336  0.10444  0.84233
V3    V   0.25664  0.60444  0.40767
V4    V   0.39556  0.74336  0.09233
V5    V   0.60444  0.25664  0.59233
V6    V   0.74336  0.39556  0.90767
V7    V   0.75664  0.89556  0.34233
V8    V   0.89556  0.75664  0.65767
E1    E   0.00664  0.75000  0.37500
E2    E   0.06946  0.93054  0.75000
E3    E   0.07610  0.68054  0.53267
E4    E   0.17390  0.17390  0.00000
E5    E   0.18054  0.42390  0.28267
E6    E   0.25000  0.49336  0.12500
E7    E   0.25000  0.99336  0.12500
E8    E   0.31946  0.92390  0.96733
E9    E   0.32610  0.67390  0.25000
E10   E   0.42390  0.18054  0.71733
E11   E   0.43054  0.43054  0.50000
E12   E   0.49336  0.25000  0.87500
E13   E   0.50664  0.75000  0.37500
E14   E   0.56946  0.56946  0.00000
E15   E   0.57610  0.81946  0.21733
E16   E   0.67390  0.32610  0.75000
E17   E   0.68054  0.07610  0.46733
E18   E   0.75000  0.00664  0.62500
E19   E   0.75000  0.50664  0.62500
E20   E   0.81946  0.57610  0.78267
E21   E   0.82610  0.82610  0.50000
E22   E   0.92390  0.31946  0.03267
E23   E   0.93054  0.06946  0.25000
E24   E   0.99336  0.25000  0.87500
loop_
