data_whz_I41/a:2  hall_number: 365, V_con: 6
_audit_creation_date              2025-03-06
_audit_creation_method            'MOFbuilder_1.0'
_symmetry_space_group_name_H-M    'P1'
_symmetry_Int_Tables_number       1
_symmetry_cell_setting            triclinic
loop_
_symmetry_equiv_pos_as_xyz
  x,y,z
_cell_length_a                    22.545700000000004
_cell_length_b                    22.545700000000004
_cell_length_c                    34.1284
_cell_angle_alpha                 90.0
_cell_angle_beta                  90.0
_cell_angle_gamma                 90.0
loop_
_atom_site_label
_atom_site_type_symbol
_atom_site_fract_x
_atom_site_fract_y
_atom_site_fract_z
V1    V   0.09397  0.04912  0.87133
V2    V   0.09397  0.54912  0.12867
V3    V   0.20088  0.34397  0.37867
V4    V   0.20088  0.84397  0.62133
V5    V   0.29912  0.15603  0.12133
V6    V   0.29912  0.65603  0.87867
V7    V   0.40603  0.45088  0.62867
V8    V   0.40603  0.95088  0.37133
V9    V   0.59397  0.04912  0.62867
V10   V   0.59397  0.54912  0.37133
V11   V   0.70088  0.34397  0.12133
V12   V   0.70088  0.84397  0.87867
V13   V   0.79912  0.15603  0.37867
V14   V   0.79912  0.65603  0.62133
V15   V   0.90603  0.45088  0.87133
V16   V   0.90603  0.95088  0.12867
E1    E   0.00000  0.00000  0.00000
E2    E   0.00000  0.25000  0.37867
E3    E   0.00000  0.25000  0.87133
E4    E   0.00000  0.50000  0.00000
E5    E   0.00000  0.75000  0.12867
E6    E   0.00000  0.75000  0.62133
E7    E   0.10258  0.05345  0.12500
E8    E   0.10258  0.55345  0.87500
E9    E   0.14742  0.44655  0.25367
E10   E   0.14742  0.94655  0.74633
E11   E   0.19655  0.10258  0.99633
E12   E   0.19655  0.35258  0.12500
E13   E   0.19655  0.60258  0.00367
E14   E   0.19655  0.85258  0.87500
E15   E   0.25000  0.25000  0.25000
E16   E   0.25000  0.75000  0.75000
E17   E   0.30345  0.14742  0.37500
E18   E   0.30345  0.39742  0.50367
E19   E   0.30345  0.64742  0.62500
E20   E   0.30345  0.89742  0.49633
E21   E   0.35258  0.05345  0.24633
E22   E   0.35258  0.55345  0.75367
E23   E   0.39742  0.44655  0.37500
E24   E   0.39742  0.94655  0.62500
E25   E   0.50000  0.00000  0.50000
E26   E   0.50000  0.25000  0.12133
E27   E   0.50000  0.25000  0.62867
E28   E   0.50000  0.50000  0.50000
E29   E   0.50000  0.75000  0.37133
E30   E   0.50000  0.75000  0.87867
E31   E   0.60258  0.05345  0.37500
E32   E   0.60258  0.55345  0.62500
E33   E   0.64742  0.44655  0.24633
E34   E   0.64742  0.94655  0.75367
E35   E   0.69655  0.10258  0.50367
E36   E   0.69655  0.35258  0.37500
E37   E   0.69655  0.60258  0.49633
E38   E   0.69655  0.85258  0.62500
E39   E   0.75000  0.25000  0.25000
E40   E   0.75000  0.75000  0.75000
E41   E   0.80345  0.14742  0.12500
E42   E   0.80345  0.39742  0.99633
E43   E   0.80345  0.64742  0.87500
E44   E   0.80345  0.89742  0.00367
E45   E   0.85258  0.05345  0.25367
E46   E   0.85258  0.55345  0.74633
E47   E   0.89742  0.44655  0.12500
E48   E   0.89742  0.94655  0.87500
loop_
