data_wib_I41/a:2  hall_number: 365, V_con: 6
_audit_creation_date              2025-03-06
_audit_creation_method            'MOFbuilder_1.0'
_symmetry_space_group_name_H-M    'P1'
_symmetry_Int_Tables_number       1
_symmetry_cell_setting            triclinic
loop_
_symmetry_equiv_pos_as_xyz
  x,y,z
_cell_length_a                    19.9999
_cell_length_b                    19.9999
_cell_length_c                    37.224
_cell_angle_alpha                 90.0
_cell_angle_beta                  90.0
_cell_angle_gamma                 90.0
loop_
_atom_site_label
_atom_site_type_symbol
_atom_site_fract_x
_atom_site_fract_y
_atom_site_fract_z
V1    V   0.12500  0.03349  0.74944
V2    V   0.12500  0.53349  0.25056
V3    V   0.21651  0.37500  0.50056
V4    V   0.21651  0.87500  0.49944
V5    V   0.28349  0.12500  0.99944
V6    V   0.28349  0.62500  0.00056
V7    V   0.37500  0.46651  0.75056
V8    V   0.37500  0.96651  0.24944
V9    V   0.62500  0.03349  0.75056
V10   V   0.62500  0.53349  0.24944
V11   V   0.71651  0.37500  0.99944
V12   V   0.71651  0.87500  0.00056
V13   V   0.78349  0.12500  0.50056
V14   V   0.78349  0.62500  0.49944
V15   V   0.87500  0.46651  0.74944
V16   V   0.87500  0.96651  0.25056
E1    E   0.00000  0.00000  0.50000
E2    E   0.00000  0.25000  0.50056
E3    E   0.00000  0.25000  0.74944
E4    E   0.00000  0.50000  0.50000
E5    E   0.00000  0.75000  0.25056
E6    E   0.00000  0.75000  0.49944
E7    E   0.12500  0.46651  0.75000
E8    E   0.12500  0.96651  0.25000
E9    E   0.17075  0.45425  0.37556
E10   E   0.17075  0.95425  0.62444
E11   E   0.20425  0.07925  0.87444
E12   E   0.20425  0.57925  0.12556
E13   E   0.21651  0.12500  0.50000
E14   E   0.21651  0.62500  0.50000
E15   E   0.25000  0.25000  0.75000
E16   E   0.25000  0.75000  0.25000
E17   E   0.28349  0.37500  0.00000
E18   E   0.28349  0.87500  0.00000
E19   E   0.29575  0.42075  0.62556
E20   E   0.29575  0.92075  0.37444
E21   E   0.32925  0.04575  0.12444
E22   E   0.32925  0.54575  0.87556
E23   E   0.37500  0.03349  0.75000
E24   E   0.37500  0.53349  0.25000
E25   E   0.50000  0.00000  0.00000
E26   E   0.50000  0.25000  0.75056
E27   E   0.50000  0.25000  0.99944
E28   E   0.50000  0.50000  0.00000
E29   E   0.50000  0.75000  0.00056
E30   E   0.50000  0.75000  0.24944
E31   E   0.62500  0.46651  0.75000
E32   E   0.62500  0.96651  0.25000
E33   E   0.67075  0.45425  0.12444
E34   E   0.67075  0.95425  0.87556
E35   E   0.70425  0.07925  0.62556
E36   E   0.70425  0.57925  0.37444
E37   E   0.71651  0.12500  0.00000
E38   E   0.71651  0.62500  0.00000
E39   E   0.75000  0.25000  0.75000
E40   E   0.75000  0.75000  0.25000
E41   E   0.78349  0.37500  0.50000
E42   E   0.78349  0.87500  0.50000
E43   E   0.79575  0.42075  0.87444
E44   E   0.79575  0.92075  0.12556
E45   E   0.82925  0.04575  0.37556
E46   E   0.82925  0.54575  0.62444
E47   E   0.87500  0.03349  0.75000
E48   E   0.87500  0.53349  0.25000
loop_
