data_wif_I-42d  hall_number: 399, V_con: 6
_audit_creation_date              2025-03-06
_audit_creation_method            'MOFbuilder_1.0'
_symmetry_space_group_name_H-M    'P1'
_symmetry_Int_Tables_number       1
_symmetry_cell_setting            triclinic
loop_
_symmetry_equiv_pos_as_xyz
  x,y,z
_cell_length_a                    23.072
_cell_length_b                    23.072
_cell_length_c                    23.137500000000003
_cell_angle_alpha                 90.0
_cell_angle_beta                  90.0
_cell_angle_gamma                 90.0
loop_
_atom_site_label
_atom_site_type_symbol
_atom_site_fract_x
_atom_site_fract_y
_atom_site_fract_z
V1    V   0.03509  0.71385  0.90281
V2    V   0.03509  0.78615  0.34719
V3    V   0.21385  0.03509  0.65281
V4    V   0.21385  0.46491  0.59719
V5    V   0.28615  0.03509  0.09719
V6    V   0.28615  0.46491  0.15281
V7    V   0.46491  0.71385  0.84719
V8    V   0.46491  0.78615  0.40281
V9    V   0.53509  0.21385  0.40281
V10   V   0.53509  0.28615  0.84719
V11   V   0.71385  0.53509  0.15281
V12   V   0.71385  0.96491  0.09719
V13   V   0.78615  0.53509  0.59719
V14   V   0.78615  0.96491  0.65281
V15   V   0.96491  0.21385  0.34719
V16   V   0.96491  0.28615  0.90281
E1    E   0.00000  0.00000  0.34719
E2    E   0.00000  0.00000  0.65281
E3    E   0.00000  0.50000  0.59719
E4    E   0.00000  0.50000  0.90281
E5    E   0.08938  0.12447  0.50000
E6    E   0.08938  0.16062  0.77781
E7    E   0.08938  0.33938  0.47219
E8    E   0.08938  0.37553  0.75000
E9    E   0.12447  0.58938  0.75000
E10   E   0.12447  0.91062  0.50000
E11   E   0.16062  0.58938  0.02781
E12   E   0.16062  0.91062  0.22219
E13   E   0.21385  0.25000  0.62500
E14   E   0.25000  0.71385  0.87500
E15   E   0.25000  0.78615  0.37500
E16   E   0.28615  0.25000  0.12500
E17   E   0.33938  0.58938  0.72219
E18   E   0.33938  0.91062  0.52781
E19   E   0.37553  0.58938  0.00000
E20   E   0.37553  0.91062  0.25000
E21   E   0.41062  0.12447  0.25000
E22   E   0.41062  0.16062  0.97219
E23   E   0.41062  0.33938  0.27781
E24   E   0.41062  0.37553  0.00000
E25   E   0.50000  0.00000  0.09719
E26   E   0.50000  0.00000  0.40281
E27   E   0.50000  0.50000  0.15281
E28   E   0.50000  0.50000  0.84719
E29   E   0.58938  0.62447  0.00000
E30   E   0.58938  0.66062  0.27781
E31   E   0.58938  0.83938  0.97219
E32   E   0.58938  0.87553  0.25000
E33   E   0.62447  0.08938  0.25000
E34   E   0.62447  0.41062  0.00000
E35   E   0.66062  0.08938  0.52781
E36   E   0.66062  0.41062  0.72219
E37   E   0.71385  0.75000  0.12500
E38   E   0.75000  0.21385  0.37500
E39   E   0.75000  0.28615  0.87500
E40   E   0.78615  0.75000  0.62500
E41   E   0.83938  0.08938  0.22219
E42   E   0.83938  0.41062  0.02781
E43   E   0.87553  0.08938  0.50000
E44   E   0.87553  0.41062  0.75000
E45   E   0.91062  0.62447  0.75000
E46   E   0.91062  0.66062  0.47219
E47   E   0.91062  0.83938  0.77781
E48   E   0.91062  0.87553  0.50000
loop_
