data_wim_I41/acd:2  hall_number: 429, V_con: 6
_audit_creation_date              2025-03-06
_audit_creation_method            'MOFbuilder_1.0'
_symmetry_space_group_name_H-M    'P1'
_symmetry_Int_Tables_number       1
_symmetry_cell_setting            triclinic
loop_
_symmetry_equiv_pos_as_xyz
  x,y,z
_cell_length_a                    45.8773
_cell_length_b                    45.8773
_cell_length_c                    19.654799999999998
_cell_angle_alpha                 90.0
_cell_angle_beta                  90.0
_cell_angle_gamma                 90.0
loop_
_atom_site_label
_atom_site_type_symbol
_atom_site_fract_x
_atom_site_fract_y
_atom_site_fract_z
V1    V   0.02016  0.10816  0.28116
V2    V   0.02016  0.39184  0.78116
V3    V   0.02016  0.60816  0.71884
V4    V   0.02016  0.89184  0.21884
V5    V   0.14184  0.22984  0.96884
V6    V   0.14184  0.27016  0.46884
V7    V   0.14184  0.72984  0.03116
V8    V   0.14184  0.77016  0.53116
V9    V   0.35816  0.22984  0.03116
V10   V   0.35816  0.27016  0.53116
V11   V   0.35816  0.72984  0.96884
V12   V   0.35816  0.77016  0.46884
V13   V   0.47984  0.10816  0.71884
V14   V   0.47984  0.39184  0.21884
V15   V   0.47984  0.60816  0.28116
V16   V   0.47984  0.89184  0.78116
V17   V   0.52016  0.10816  0.21884
V18   V   0.52016  0.39184  0.71884
V19   V   0.52016  0.60816  0.78116
V20   V   0.52016  0.89184  0.28116
V21   V   0.64184  0.22984  0.53116
V22   V   0.64184  0.27016  0.03116
V23   V   0.64184  0.72984  0.46884
V24   V   0.64184  0.77016  0.96884
V25   V   0.85816  0.22984  0.46884
V26   V   0.85816  0.27016  0.96884
V27   V   0.85816  0.72984  0.53116
V28   V   0.85816  0.77016  0.03116
V29   V   0.97984  0.10816  0.78116
V30   V   0.97984  0.39184  0.28116
V31   V   0.97984  0.60816  0.21884
V32   V   0.97984  0.89184  0.71884
E1    E   0.00000  0.10816  0.03116
E2    E   0.00000  0.10816  0.53116
E3    E   0.00000  0.39184  0.03116
E4    E   0.00000  0.39184  0.53116
E5    E   0.00000  0.60816  0.46884
E6    E   0.00000  0.60816  0.96884
E7    E   0.00000  0.89184  0.46884
E8    E   0.00000  0.89184  0.96884
E9    E   0.02016  0.00000  0.25000
E10   E   0.02016  0.50000  0.75000
E11   E   0.06084  0.16900  0.87500
E12   E   0.06084  0.33100  0.37500
E13   E   0.06084  0.66900  0.12500
E14   E   0.06084  0.83100  0.62500
E15   E   0.08100  0.16900  0.12500
E16   E   0.08100  0.33100  0.62500
E17   E   0.08100  0.66900  0.87500
E18   E   0.08100  0.83100  0.37500
E19   E   0.08100  0.16900  0.12500
E20   E   0.08100  0.18916  0.37500
E21   E   0.08100  0.31084  0.87500
E22   E   0.08100  0.33100  0.62500
E23   E   0.08100  0.66900  0.87500
E24   E   0.08100  0.68916  0.62500
E25   E   0.08100  0.81084  0.12500
E26   E   0.08100  0.83100  0.37500
E27   E   0.14184  0.25000  0.21884
E28   E   0.14184  0.25000  0.71884
E29   E   0.14184  0.75000  0.28116
E30   E   0.14184  0.75000  0.78116
E31   E   0.25000  0.22984  0.00000
E32   E   0.25000  0.27016  0.50000
E33   E   0.25000  0.72984  0.00000
E34   E   0.25000  0.77016  0.50000
E35   E   0.35816  0.25000  0.28116
E36   E   0.35816  0.25000  0.78116
E37   E   0.35816  0.75000  0.21884
E38   E   0.35816  0.75000  0.71884
E39   E   0.41900  0.16900  0.87500
E40   E   0.41900  0.18916  0.62500
E41   E   0.41900  0.31084  0.12500
E42   E   0.41900  0.33100  0.37500
E43   E   0.41900  0.66900  0.12500
E44   E   0.41900  0.68916  0.37500
E45   E   0.41900  0.81084  0.87500
E46   E   0.41900  0.83100  0.62500
E47   E   0.41900  0.16900  0.87500
E48   E   0.41900  0.33100  0.37500
E49   E   0.41900  0.66900  0.12500
E50   E   0.41900  0.83100  0.62500
E51   E   0.43916  0.16900  0.12500
E52   E   0.43916  0.33100  0.62500
E53   E   0.43916  0.66900  0.87500
E54   E   0.43916  0.83100  0.37500
E55   E   0.47984  0.00000  0.75000
E56   E   0.47984  0.50000  0.25000
E57   E   0.50000  0.10816  0.46884
E58   E   0.50000  0.10816  0.96884
E59   E   0.50000  0.39184  0.46884
E60   E   0.50000  0.39184  0.96884
E61   E   0.50000  0.60816  0.03116
E62   E   0.50000  0.60816  0.53116
E63   E   0.50000  0.89184  0.03116
E64   E   0.50000  0.89184  0.53116
E65   E   0.52016  0.00000  0.25000
E66   E   0.52016  0.50000  0.75000
E67   E   0.56084  0.16900  0.62500
E68   E   0.56084  0.33100  0.12500
E69   E   0.56084  0.66900  0.37500
E70   E   0.56084  0.83100  0.87500
E71   E   0.58100  0.16900  0.37500
E72   E   0.58100  0.16900  0.37500
E73   E   0.58100  0.18916  0.12500
E74   E   0.58100  0.31084  0.62500
E75   E   0.58100  0.33100  0.87500
E76   E   0.58100  0.33100  0.87500
E77   E   0.58100  0.66900  0.62500
E78   E   0.58100  0.68916  0.87500
E79   E   0.58100  0.81084  0.37500
E80   E   0.58100  0.83100  0.12500
E81   E   0.64184  0.25000  0.28116
E82   E   0.64184  0.25000  0.78116
E83   E   0.64184  0.75000  0.21884
E84   E   0.64184  0.75000  0.71884
E85   E   0.75000  0.22984  0.50000
E86   E   0.75000  0.27016  0.00000
E87   E   0.75000  0.72984  0.50000
E88   E   0.75000  0.77016  0.00000
E89   E   0.85816  0.25000  0.21884
E90   E   0.85816  0.25000  0.71884
E91   E   0.85816  0.75000  0.28116
E92   E   0.85816  0.75000  0.78116
E93   E   0.91900  0.16900  0.62500
E94   E   0.91900  0.16900  0.62500
E95   E   0.91900  0.18916  0.87500
E96   E   0.91900  0.31084  0.37500
E97   E   0.91900  0.33100  0.12500
E98   E   0.91900  0.33100  0.12500
E99   E   0.91900  0.66900  0.37500
E100  E   0.91900  0.68916  0.12500
E101  E   0.91900  0.81084  0.62500
E102  E   0.91900  0.83100  0.87500
E103  E   0.93916  0.16900  0.37500
E104  E   0.93916  0.33100  0.87500
E105  E   0.93916  0.66900  0.62500
E106  E   0.93916  0.83100  0.12500
E107  E   0.97984  0.00000  0.75000
E108  E   0.97984  0.50000  0.25000
loop_
