data_win_I41/acd:2  hall_number: 429, V_con: 6
_audit_creation_date              2025-03-06
_audit_creation_method            'MOFbuilder_1.0'
_symmetry_space_group_name_H-M    'P1'
_symmetry_Int_Tables_number       1
_symmetry_cell_setting            triclinic
loop_
_symmetry_equiv_pos_as_xyz
  x,y,z
_cell_length_a                    45.450900000000004
_cell_length_b                    45.450900000000004
_cell_length_c                    19.7918
_cell_angle_alpha                 90.0
_cell_angle_beta                  90.0
_cell_angle_gamma                 90.0
loop_
_atom_site_label
_atom_site_type_symbol
_atom_site_fract_x
_atom_site_fract_y
_atom_site_fract_z
V1    V   0.01584  0.10837  0.47635
V2    V   0.01584  0.39163  0.97635
V3    V   0.01584  0.60837  0.52365
V4    V   0.01584  0.89163  0.02365
V5    V   0.14163  0.23416  0.77365
V6    V   0.14163  0.26584  0.27365
V7    V   0.14163  0.73416  0.22635
V8    V   0.14163  0.76584  0.72635
V9    V   0.35837  0.23416  0.22635
V10   V   0.35837  0.26584  0.72635
V11   V   0.35837  0.73416  0.77365
V12   V   0.35837  0.76584  0.27365
V13   V   0.48416  0.10837  0.52365
V14   V   0.48416  0.39163  0.02365
V15   V   0.48416  0.60837  0.47635
V16   V   0.48416  0.89163  0.97635
V17   V   0.51584  0.10837  0.02365
V18   V   0.51584  0.39163  0.52365
V19   V   0.51584  0.60837  0.97635
V20   V   0.51584  0.89163  0.47635
V21   V   0.64163  0.23416  0.72635
V22   V   0.64163  0.26584  0.22635
V23   V   0.64163  0.73416  0.27365
V24   V   0.64163  0.76584  0.77365
V25   V   0.85837  0.23416  0.27365
V26   V   0.85837  0.26584  0.77365
V27   V   0.85837  0.73416  0.72635
V28   V   0.85837  0.76584  0.22635
V29   V   0.98416  0.10837  0.97635
V30   V   0.98416  0.39163  0.47635
V31   V   0.98416  0.60837  0.02365
V32   V   0.98416  0.89163  0.52365
E1    E   0.00000  0.00000  0.00000
E2    E   0.00000  0.00000  0.50000
E3    E   0.00000  0.10837  0.22635
E4    E   0.00000  0.10837  0.72635
E5    E   0.00000  0.39163  0.22635
E6    E   0.00000  0.39163  0.72635
E7    E   0.00000  0.50000  0.00000
E8    E   0.00000  0.50000  0.50000
E9    E   0.00000  0.60837  0.27365
E10   E   0.00000  0.60837  0.77365
E11   E   0.00000  0.89163  0.27365
E12   E   0.00000  0.89163  0.77365
E13   E   0.06290  0.17127  0.87500
E14   E   0.06290  0.32873  0.37500
E15   E   0.06290  0.67127  0.12500
E16   E   0.06290  0.82873  0.62500
E17   E   0.07873  0.17127  0.62500
E18   E   0.07873  0.32873  0.12500
E19   E   0.07873  0.67127  0.37500
E20   E   0.07873  0.82873  0.87500
E21   E   0.07873  0.17127  0.62500
E22   E   0.07873  0.18710  0.37500
E23   E   0.07873  0.31290  0.87500
E24   E   0.07873  0.32873  0.12500
E25   E   0.07873  0.67127  0.37500
E26   E   0.07873  0.68710  0.62500
E27   E   0.07873  0.81290  0.12500
E28   E   0.07873  0.82873  0.87500
E29   E   0.14163  0.25000  0.02365
E30   E   0.14163  0.25000  0.52365
E31   E   0.14163  0.75000  0.47635
E32   E   0.14163  0.75000  0.97635
E33   E   0.25000  0.25000  0.25000
E34   E   0.25000  0.25000  0.75000
E35   E   0.25000  0.75000  0.25000
E36   E   0.25000  0.75000  0.75000
E37   E   0.35837  0.25000  0.47635
E38   E   0.35837  0.25000  0.97635
E39   E   0.35837  0.75000  0.02365
E40   E   0.35837  0.75000  0.52365
E41   E   0.42127  0.17127  0.37500
E42   E   0.42127  0.32873  0.87500
E43   E   0.42127  0.67127  0.62500
E44   E   0.42127  0.82873  0.12500
E45   E   0.42127  0.17127  0.37500
E46   E   0.42127  0.18710  0.62500
E47   E   0.42127  0.31290  0.12500
E48   E   0.42127  0.32873  0.87500
E49   E   0.42127  0.67127  0.62500
E50   E   0.42127  0.68710  0.37500
E51   E   0.42127  0.81290  0.87500
E52   E   0.42127  0.82873  0.12500
E53   E   0.43710  0.17127  0.12500
E54   E   0.43710  0.32873  0.62500
E55   E   0.43710  0.67127  0.87500
E56   E   0.43710  0.82873  0.37500
E57   E   0.50000  0.00000  0.00000
E58   E   0.50000  0.00000  0.50000
E59   E   0.50000  0.10837  0.27365
E60   E   0.50000  0.10837  0.77365
E61   E   0.50000  0.39163  0.27365
E62   E   0.50000  0.39163  0.77365
E63   E   0.50000  0.50000  0.00000
E64   E   0.50000  0.50000  0.50000
E65   E   0.50000  0.60837  0.22635
E66   E   0.50000  0.60837  0.72635
E67   E   0.50000  0.89163  0.22635
E68   E   0.50000  0.89163  0.72635
E69   E   0.56290  0.17127  0.62500
E70   E   0.56290  0.32873  0.12500
E71   E   0.56290  0.67127  0.37500
E72   E   0.56290  0.82873  0.87500
E73   E   0.57873  0.17127  0.87500
E74   E   0.57873  0.17127  0.87500
E75   E   0.57873  0.18710  0.12500
E76   E   0.57873  0.31290  0.62500
E77   E   0.57873  0.32873  0.37500
E78   E   0.57873  0.32873  0.37500
E79   E   0.57873  0.67127  0.12500
E80   E   0.57873  0.68710  0.87500
E81   E   0.57873  0.81290  0.37500
E82   E   0.57873  0.82873  0.62500
E83   E   0.64163  0.25000  0.47635
E84   E   0.64163  0.25000  0.97635
E85   E   0.64163  0.75000  0.02365
E86   E   0.64163  0.75000  0.52365
E87   E   0.75000  0.25000  0.25000
E88   E   0.75000  0.25000  0.75000
E89   E   0.75000  0.75000  0.25000
E90   E   0.75000  0.75000  0.75000
E91   E   0.85837  0.25000  0.02365
E92   E   0.85837  0.25000  0.52365
E93   E   0.85837  0.75000  0.47635
E94   E   0.85837  0.75000  0.97635
E95   E   0.92127  0.17127  0.12500
E96   E   0.92127  0.17127  0.12500
E97   E   0.92127  0.18710  0.87500
E98   E   0.92127  0.31290  0.37500
E99   E   0.92127  0.32873  0.62500
E100  E   0.92127  0.32873  0.62500
E101  E   0.92127  0.67127  0.87500
E102  E   0.92127  0.68710  0.12500
E103  E   0.92127  0.81290  0.62500
E104  E   0.92127  0.82873  0.37500
E105  E   0.93710  0.17127  0.37500
E106  E   0.93710  0.32873  0.87500
E107  E   0.93710  0.67127  0.62500
E108  E   0.93710  0.82873  0.12500
loop_
