data_wio_I41/acd:2  hall_number: 429, V_con: 6
_audit_creation_date              2025-03-06
_audit_creation_method            'MOFbuilder_1.0'
_symmetry_space_group_name_H-M    'P1'
_symmetry_Int_Tables_number       1
_symmetry_cell_setting            triclinic
loop_
_symmetry_equiv_pos_as_xyz
  x,y,z
_cell_length_a                    35.7007
_cell_length_b                    35.7007
_cell_length_c                    23.2676
_cell_angle_alpha                 90.0
_cell_angle_beta                  90.0
_cell_angle_gamma                 90.0
loop_
_atom_site_label
_atom_site_type_symbol
_atom_site_fract_x
_atom_site_fract_y
_atom_site_fract_z
V1    V   0.12206  0.09791  0.91259
V2    V   0.12206  0.40209  0.41259
V3    V   0.12206  0.59791  0.08741
V4    V   0.12206  0.90209  0.58741
V5    V   0.15209  0.12794  0.33741
V6    V   0.15209  0.37206  0.83741
V7    V   0.15209  0.62794  0.66259
V8    V   0.15209  0.87206  0.16259
V9    V   0.34791  0.12794  0.66259
V10   V   0.34791  0.37206  0.16259
V11   V   0.34791  0.62794  0.33741
V12   V   0.34791  0.87206  0.83741
V13   V   0.37794  0.09791  0.08741
V14   V   0.37794  0.40209  0.58741
V15   V   0.37794  0.59791  0.91259
V16   V   0.37794  0.90209  0.41259
V17   V   0.62206  0.09791  0.58741
V18   V   0.62206  0.40209  0.08741
V19   V   0.62206  0.59791  0.41259
V20   V   0.62206  0.90209  0.91259
V21   V   0.65209  0.12794  0.16259
V22   V   0.65209  0.37206  0.66259
V23   V   0.65209  0.62794  0.83741
V24   V   0.65209  0.87206  0.33741
V25   V   0.84791  0.12794  0.83741
V26   V   0.84791  0.37206  0.33741
V27   V   0.84791  0.62794  0.16259
V28   V   0.84791  0.87206  0.66259
V29   V   0.87794  0.09791  0.41259
V30   V   0.87794  0.40209  0.91259
V31   V   0.87794  0.59791  0.58741
V32   V   0.87794  0.90209  0.08741
E1    E   0.01502  0.11293  0.37500
E2    E   0.01502  0.38707  0.87500
E3    E   0.01502  0.61293  0.62500
E4    E   0.01502  0.88707  0.12500
E5    E   0.13707  0.01502  0.46241
E6    E   0.13707  0.11293  0.12500
E7    E   0.13707  0.23498  0.87500
E8    E   0.13707  0.26502  0.37500
E9    E   0.13707  0.38707  0.62500
E10   E   0.13707  0.48498  0.96241
E11   E   0.13707  0.51502  0.53759
E12   E   0.13707  0.61293  0.87500
E13   E   0.13707  0.73498  0.12500
E14   E   0.13707  0.76502  0.62500
E15   E   0.13707  0.88707  0.37500
E16   E   0.13707  0.98498  0.03759
E17   E   0.15209  0.00000  0.25000
E18   E   0.15209  0.50000  0.75000
E19   E   0.23498  0.11293  0.78759
E20   E   0.23498  0.38707  0.28759
E21   E   0.23498  0.61293  0.21241
E22   E   0.23498  0.88707  0.71241
E23   E   0.25000  0.09791  0.00000
E24   E   0.25000  0.40209  0.50000
E25   E   0.25000  0.59791  0.00000
E26   E   0.25000  0.90209  0.50000
E27   E   0.26502  0.11293  0.21241
E28   E   0.26502  0.38707  0.71241
E29   E   0.26502  0.61293  0.78759
E30   E   0.26502  0.88707  0.28759
E31   E   0.34791  0.00000  0.75000
E32   E   0.34791  0.50000  0.25000
E33   E   0.36293  0.01502  0.53759
E34   E   0.36293  0.11293  0.87500
E35   E   0.36293  0.23498  0.12500
E36   E   0.36293  0.26502  0.62500
E37   E   0.36293  0.38707  0.37500
E38   E   0.36293  0.48498  0.03759
E39   E   0.36293  0.51502  0.46241
E40   E   0.36293  0.61293  0.12500
E41   E   0.36293  0.73498  0.87500
E42   E   0.36293  0.76502  0.37500
E43   E   0.36293  0.88707  0.62500
E44   E   0.36293  0.98498  0.96241
E45   E   0.48498  0.11293  0.62500
E46   E   0.48498  0.38707  0.12500
E47   E   0.48498  0.61293  0.37500
E48   E   0.48498  0.88707  0.87500
E49   E   0.51502  0.11293  0.12500
E50   E   0.51502  0.38707  0.62500
E51   E   0.51502  0.61293  0.87500
E52   E   0.51502  0.88707  0.37500
E53   E   0.63707  0.01502  0.03759
E54   E   0.63707  0.11293  0.37500
E55   E   0.63707  0.23498  0.62500
E56   E   0.63707  0.26502  0.12500
E57   E   0.63707  0.38707  0.87500
E58   E   0.63707  0.48498  0.53759
E59   E   0.63707  0.51502  0.96241
E60   E   0.63707  0.61293  0.62500
E61   E   0.63707  0.73498  0.37500
E62   E   0.63707  0.76502  0.87500
E63   E   0.63707  0.88707  0.12500
E64   E   0.63707  0.98498  0.46241
E65   E   0.65209  0.00000  0.25000
E66   E   0.65209  0.50000  0.75000
E67   E   0.73498  0.11293  0.71241
E68   E   0.73498  0.38707  0.21241
E69   E   0.73498  0.61293  0.28759
E70   E   0.73498  0.88707  0.78759
E71   E   0.75000  0.09791  0.50000
E72   E   0.75000  0.40209  0.00000
E73   E   0.75000  0.59791  0.50000
E74   E   0.75000  0.90209  0.00000
E75   E   0.76502  0.11293  0.28759
E76   E   0.76502  0.38707  0.78759
E77   E   0.76502  0.61293  0.71241
E78   E   0.76502  0.88707  0.21241
E79   E   0.84791  0.00000  0.75000
E80   E   0.84791  0.50000  0.25000
E81   E   0.86293  0.01502  0.96241
E82   E   0.86293  0.11293  0.62500
E83   E   0.86293  0.23498  0.37500
E84   E   0.86293  0.26502  0.87500
E85   E   0.86293  0.38707  0.12500
E86   E   0.86293  0.48498  0.46241
E87   E   0.86293  0.51502  0.03759
E88   E   0.86293  0.61293  0.37500
E89   E   0.86293  0.73498  0.62500
E90   E   0.86293  0.76502  0.12500
E91   E   0.86293  0.88707  0.87500
E92   E   0.86293  0.98498  0.53759
E93   E   0.98498  0.11293  0.87500
E94   E   0.98498  0.38707  0.37500
E95   E   0.98498  0.61293  0.12500
E96   E   0.98498  0.88707  0.62500
loop_
