data_wis_I41/acd:2  hall_number: 429, V_con: 6
_audit_creation_date              2025-03-06
_audit_creation_method            'MOFbuilder_1.0'
_symmetry_space_group_name_H-M    'P1'
_symmetry_Int_Tables_number       1
_symmetry_cell_setting            triclinic
loop_
_symmetry_equiv_pos_as_xyz
  x,y,z
_cell_length_a                    19.854400000000002
_cell_length_b                    19.854400000000002
_cell_length_c                    70.4498
_cell_angle_alpha                 90.0
_cell_angle_beta                  90.0
_cell_angle_gamma                 90.0
loop_
_atom_site_label
_atom_site_type_symbol
_atom_site_fract_x
_atom_site_fract_y
_atom_site_fract_z
V1    V   0.12316  0.03034  0.93869
V2    V   0.12316  0.46966  0.43869
V3    V   0.12316  0.53034  0.06131
V4    V   0.12316  0.96966  0.56131
V5    V   0.21966  0.12684  0.31131
V6    V   0.21966  0.37316  0.81131
V7    V   0.21966  0.62684  0.68869
V8    V   0.21966  0.87316  0.18869
V9    V   0.28034  0.12684  0.68869
V10   V   0.28034  0.37316  0.18869
V11   V   0.28034  0.62684  0.31131
V12   V   0.28034  0.87316  0.81131
V13   V   0.37684  0.03034  0.06131
V14   V   0.37684  0.46966  0.56131
V15   V   0.37684  0.53034  0.93869
V16   V   0.37684  0.96966  0.43869
V17   V   0.62316  0.03034  0.56131
V18   V   0.62316  0.46966  0.06131
V19   V   0.62316  0.53034  0.43869
V20   V   0.62316  0.96966  0.93869
V21   V   0.71966  0.12684  0.18869
V22   V   0.71966  0.37316  0.68869
V23   V   0.71966  0.62684  0.81131
V24   V   0.71966  0.87316  0.31131
V25   V   0.78034  0.12684  0.81131
V26   V   0.78034  0.37316  0.31131
V27   V   0.78034  0.62684  0.18869
V28   V   0.78034  0.87316  0.68869
V29   V   0.87684  0.03034  0.43869
V30   V   0.87684  0.46966  0.93869
V31   V   0.87684  0.53034  0.56131
V32   V   0.87684  0.96966  0.06131
E1    E   0.00000  0.00000  0.00000
E2    E   0.00000  0.00000  0.50000
E3    E   0.00000  0.25000  0.31131
E4    E   0.00000  0.25000  0.43869
E5    E   0.00000  0.25000  0.81131
E6    E   0.00000  0.25000  0.93869
E7    E   0.00000  0.50000  0.00000
E8    E   0.00000  0.50000  0.50000
E9    E   0.00000  0.75000  0.06131
E10   E   0.00000  0.75000  0.18869
E11   E   0.00000  0.75000  0.56131
E12   E   0.00000  0.75000  0.68869
E13   E   0.12684  0.00000  0.06131
E14   E   0.12684  0.00000  0.43869
E15   E   0.12684  0.50000  0.56131
E16   E   0.12684  0.50000  0.93869
E17   E   0.20175  0.04825  0.62500
E18   E   0.20175  0.04825  0.62500
E19   E   0.20175  0.45175  0.12500
E20   E   0.20175  0.54825  0.37500
E21   E   0.20175  0.95175  0.87500
E22   E   0.21966  0.00000  0.25000
E23   E   0.21966  0.50000  0.75000
E24   E   0.25000  0.03034  0.00000
E25   E   0.25000  0.12316  0.18869
E26   E   0.25000  0.12316  0.81131
E27   E   0.25000  0.25000  0.25000
E28   E   0.25000  0.25000  0.75000
E29   E   0.25000  0.37684  0.31131
E30   E   0.25000  0.37684  0.68869
E31   E   0.25000  0.46966  0.50000
E32   E   0.25000  0.53034  0.00000
E33   E   0.25000  0.62316  0.18869
E34   E   0.25000  0.62316  0.81131
E35   E   0.25000  0.75000  0.25000
E36   E   0.25000  0.75000  0.75000
E37   E   0.25000  0.87684  0.31131
E38   E   0.25000  0.87684  0.68869
E39   E   0.25000  0.96966  0.50000
E40   E   0.28034  0.00000  0.75000
E41   E   0.28034  0.50000  0.25000
E42   E   0.29825  0.04825  0.37500
E43   E   0.29825  0.04825  0.37500
E44   E   0.29825  0.45175  0.87500
E45   E   0.29825  0.54825  0.62500
E46   E   0.29825  0.95175  0.12500
E47   E   0.37316  0.00000  0.56131
E48   E   0.37316  0.00000  0.93869
E49   E   0.37316  0.50000  0.06131
E50   E   0.37316  0.50000  0.43869
E51   E   0.50000  0.00000  0.00000
E52   E   0.50000  0.00000  0.50000
E53   E   0.50000  0.25000  0.06131
E54   E   0.50000  0.25000  0.18869
E55   E   0.50000  0.25000  0.56131
E56   E   0.50000  0.25000  0.68869
E57   E   0.50000  0.50000  0.00000
E58   E   0.50000  0.50000  0.50000
E59   E   0.50000  0.75000  0.31131
E60   E   0.50000  0.75000  0.43869
E61   E   0.50000  0.75000  0.81131
E62   E   0.50000  0.75000  0.93869
E63   E   0.62684  0.00000  0.06131
E64   E   0.62684  0.00000  0.43869
E65   E   0.62684  0.50000  0.56131
E66   E   0.62684  0.50000  0.93869
E67   E   0.70175  0.04825  0.87500
E68   E   0.70175  0.04825  0.87500
E69   E   0.70175  0.45175  0.37500
E70   E   0.70175  0.54825  0.12500
E71   E   0.70175  0.95175  0.62500
E72   E   0.71966  0.00000  0.25000
E73   E   0.71966  0.50000  0.75000
E74   E   0.75000  0.03034  0.50000
E75   E   0.75000  0.12316  0.31131
E76   E   0.75000  0.12316  0.68869
E77   E   0.75000  0.25000  0.25000
E78   E   0.75000  0.25000  0.75000
E79   E   0.75000  0.37684  0.18869
E80   E   0.75000  0.37684  0.81131
E81   E   0.75000  0.46966  0.00000
E82   E   0.75000  0.53034  0.50000
E83   E   0.75000  0.62316  0.31131
E84   E   0.75000  0.62316  0.68869
E85   E   0.75000  0.75000  0.25000
E86   E   0.75000  0.75000  0.75000
E87   E   0.75000  0.87684  0.18869
E88   E   0.75000  0.87684  0.81131
E89   E   0.75000  0.96966  0.00000
E90   E   0.78034  0.00000  0.75000
E91   E   0.78034  0.50000  0.25000
E92   E   0.79825  0.04825  0.12500
E93   E   0.79825  0.04825  0.12500
E94   E   0.79825  0.45175  0.62500
E95   E   0.79825  0.54825  0.87500
E96   E   0.79825  0.95175  0.37500
E97   E   0.87316  0.00000  0.56131
E98   E   0.87316  0.00000  0.93869
E99   E   0.87316  0.50000  0.06131
E100  E   0.87316  0.50000  0.43869
loop_
