data_wiv_I-42d  hall_number: 399, V_con: 6
_audit_creation_date              2025-03-06
_audit_creation_method            'MOFbuilder_1.0'
_symmetry_space_group_name_H-M    'P1'
_symmetry_Int_Tables_number       1
_symmetry_cell_setting            triclinic
loop_
_symmetry_equiv_pos_as_xyz
  x,y,z
_cell_length_a                    37.9889
_cell_length_b                    37.9889
_cell_length_c                    10.0
_cell_angle_alpha                 90.0
_cell_angle_beta                  90.0
_cell_angle_gamma                 90.0
loop_
_atom_site_label
_atom_site_type_symbol
_atom_site_fract_x
_atom_site_fract_y
_atom_site_fract_z
V1    V   0.11840  0.63466  0.88417
V2    V   0.11840  0.86534  0.36583
V3    V   0.13466  0.11840  0.63417
V4    V   0.13466  0.38160  0.61583
V5    V   0.36534  0.11840  0.11583
V6    V   0.36534  0.38160  0.13417
V7    V   0.38160  0.63466  0.86583
V8    V   0.38160  0.86534  0.38417
V9    V   0.61840  0.13466  0.38417
V10   V   0.61840  0.36534  0.86583
V11   V   0.63466  0.61840  0.13417
V12   V   0.63466  0.88160  0.11583
V13   V   0.86534  0.61840  0.61583
V14   V   0.86534  0.88160  0.63417
V15   V   0.88160  0.13466  0.36583
V16   V   0.88160  0.36534  0.88417
E1    E   0.00813  0.12653  0.50000
E2    E   0.00813  0.37347  0.75000
E3    E   0.11840  0.63466  0.38417
E4    E   0.11840  0.75000  0.12500
E5    E   0.11840  0.86534  0.86583
E6    E   0.12653  0.50813  0.75000
E7    E   0.12653  0.99187  0.50000
E8    E   0.13466  0.11840  0.13417
E9    E   0.13466  0.25000  0.62500
E10   E   0.13466  0.38160  0.11583
E11   E   0.25000  0.11840  0.87500
E12   E   0.25000  0.38160  0.37500
E13   E   0.25000  0.63466  0.87500
E14   E   0.25000  0.86534  0.37500
E15   E   0.36534  0.11840  0.61583
E16   E   0.36534  0.25000  0.12500
E17   E   0.36534  0.38160  0.63417
E18   E   0.37347  0.50813  0.00000
E19   E   0.37347  0.99187  0.25000
E20   E   0.38160  0.63466  0.36583
E21   E   0.38160  0.75000  0.62500
E22   E   0.38160  0.86534  0.88417
E23   E   0.49187  0.12653  0.25000
E24   E   0.49187  0.37347  0.00000
E25   E   0.50813  0.62653  0.00000
E26   E   0.50813  0.87347  0.25000
E27   E   0.61840  0.13466  0.88417
E28   E   0.61840  0.25000  0.62500
E29   E   0.61840  0.36534  0.36583
E30   E   0.62653  0.00813  0.25000
E31   E   0.62653  0.49187  0.00000
E32   E   0.63466  0.61840  0.63417
E33   E   0.63466  0.75000  0.12500
E34   E   0.63466  0.88160  0.61583
E35   E   0.75000  0.13466  0.37500
E36   E   0.75000  0.36534  0.87500
E37   E   0.75000  0.61840  0.37500
E38   E   0.75000  0.88160  0.87500
E39   E   0.86534  0.61840  0.11583
E40   E   0.86534  0.75000  0.62500
E41   E   0.86534  0.88160  0.13417
E42   E   0.87347  0.00813  0.50000
E43   E   0.87347  0.49187  0.75000
E44   E   0.88160  0.13466  0.86583
E45   E   0.88160  0.25000  0.12500
E46   E   0.88160  0.36534  0.38417
E47   E   0.99187  0.62653  0.75000
E48   E   0.99187  0.87347  0.50000
loop_
