data_wiz_P6222  hall_number: 474, V_con: 3
_audit_creation_date              2025-03-06
_audit_creation_method            'MOFbuilder_1.0'
_symmetry_space_group_name_H-M    'P1'
_symmetry_Int_Tables_number       1
_symmetry_cell_setting            triclinic
loop_
_symmetry_equiv_pos_as_xyz
  x,y,z
_cell_length_a                    21.2508
_cell_length_b                    21.2508
_cell_length_c                    45.751799999999996
_cell_angle_alpha                 90.0
_cell_angle_beta                  90.0
_cell_angle_gamma                 120.0
loop_
_atom_site_label
_atom_site_type_symbol
_atom_site_fract_x
_atom_site_fract_y
_atom_site_fract_z
V1    V   0.14737  0.37602  0.89236
V2    V   0.14737  0.77135  0.44097
V3    V   0.22865  0.37602  0.10764
V4    V   0.22865  0.85263  0.22569
V5    V   0.37602  0.14737  0.77431
V6    V   0.37602  0.22865  0.55903
V7    V   0.62398  0.77135  0.55903
V8    V   0.62398  0.85263  0.77431
V9    V   0.77135  0.14737  0.22569
V10   V   0.77135  0.62398  0.10764
V11   V   0.85263  0.22865  0.44097
V12   V   0.85263  0.62398  0.89236
E1    E   0.00000  0.26170  0.16666
E2    E   0.00000  0.26170  0.16667
E3    E   0.00000  0.50000  0.44097
E4    E   0.00000  0.50000  0.89236
E5    E   0.00000  0.73830  0.16666
E6    E   0.00000  0.73830  0.16667
E7    E   0.18801  0.37602  0.00000
E8    E   0.18801  0.81199  0.33333
E9    E   0.26170  0.00000  0.50000
E10   E   0.26170  0.00000  0.50000
E11   E   0.26170  0.26170  0.83333
E12   E   0.26170  0.26170  0.83334
E13   E   0.37602  0.18801  0.66667
E14   E   0.50000  0.00000  0.22569
E15   E   0.50000  0.00000  0.77431
E16   E   0.50000  0.50000  0.10764
E17   E   0.50000  0.50000  0.55903
E18   E   0.62398  0.81199  0.66667
E19   E   0.73830  0.00000  0.50000
E20   E   0.73830  0.00000  0.50000
E21   E   0.73830  0.73830  0.83333
E22   E   0.73830  0.73830  0.83334
E23   E   0.81199  0.18801  0.33333
E24   E   0.81199  0.62398  0.00000
loop_
