data_wja_P63/m  hall_number: 470, V_con: 6
_audit_creation_date              2025-03-06
_audit_creation_method            'MOFbuilder_1.0'
_symmetry_space_group_name_H-M    'P1'
_symmetry_Int_Tables_number       1
_symmetry_cell_setting            triclinic
loop_
_symmetry_equiv_pos_as_xyz
  x,y,z
_cell_length_a                    24.7752
_cell_length_b                    24.7752
_cell_length_c                    28.200400000000002
_cell_angle_alpha                 90.0
_cell_angle_beta                  90.0
_cell_angle_gamma                 120.0
loop_
_atom_site_label
_atom_site_type_symbol
_atom_site_fract_x
_atom_site_fract_y
_atom_site_fract_z
V1    V   0.12582  0.71126  0.07270
V2    V   0.12582  0.71126  0.42730
V3    V   0.28874  0.41456  0.07270
V4    V   0.28874  0.41456  0.42730
V5    V   0.41456  0.12582  0.57270
V6    V   0.41456  0.12582  0.92730
V7    V   0.58544  0.87418  0.07270
V8    V   0.58544  0.87418  0.42730
V9    V   0.71126  0.58544  0.57270
V10   V   0.71126  0.58544  0.92730
V11   V   0.87418  0.28874  0.57270
V12   V   0.87418  0.28874  0.92730
E1    E   0.00000  0.50000  0.00000
E2    E   0.00000  0.50000  0.50000
E3    E   0.08146  0.35165  0.00000
E4    E   0.08146  0.35165  0.50000
E5    E   0.12582  0.71126  0.25000
E6    E   0.20728  0.56291  0.07270
E7    E   0.20728  0.56291  0.42730
E8    E   0.27019  0.91854  0.00000
E9    E   0.27019  0.91854  0.50000
E10   E   0.28874  0.41456  0.25000
E11   E   0.35165  0.27019  0.00000
E12   E   0.35165  0.27019  0.50000
E13   E   0.35563  0.79272  0.07270
E14   E   0.35563  0.79272  0.42730
E15   E   0.41456  0.12582  0.75000
E16   E   0.43709  0.64437  0.07270
E17   E   0.43709  0.64437  0.42730
E18   E   0.50000  0.00000  0.00000
E19   E   0.50000  0.00000  0.50000
E20   E   0.50000  0.50000  0.00000
E21   E   0.50000  0.50000  0.50000
E22   E   0.56291  0.35563  0.57270
E23   E   0.56291  0.35563  0.92730
E24   E   0.58544  0.87418  0.25000
E25   E   0.64437  0.20728  0.57270
E26   E   0.64437  0.20728  0.92730
E27   E   0.64835  0.72981  0.00000
E28   E   0.64835  0.72981  0.50000
E29   E   0.71126  0.58544  0.75000
E30   E   0.72981  0.08146  0.00000
E31   E   0.72981  0.08146  0.50000
E32   E   0.79272  0.43709  0.57270
E33   E   0.79272  0.43709  0.92730
E34   E   0.87418  0.28874  0.75000
E35   E   0.91854  0.64835  0.00000
E36   E   0.91854  0.64835  0.50000
loop_
