data_wjc_P6/mcc  hall_number: 486, V_con: 7
_audit_creation_date              2025-03-06
_audit_creation_method            'MOFbuilder_1.0'
_symmetry_space_group_name_H-M    'P1'
_symmetry_Int_Tables_number       1
_symmetry_cell_setting            triclinic
loop_
_symmetry_equiv_pos_as_xyz
  x,y,z
_cell_length_a                    26.4576
_cell_length_b                    26.4576
_cell_length_c                    38.5162
_cell_angle_alpha                 90.0
_cell_angle_beta                  90.0
_cell_angle_gamma                 120.0
loop_
_atom_site_label
_atom_site_type_symbol
_atom_site_fract_x
_atom_site_fract_y
_atom_site_fract_z
V1    V   0.14286  0.42857  0.37018
V2    V   0.14286  0.42857  0.62982
V3    V   0.14286  0.71429  0.12982
V4    V   0.14286  0.71429  0.87018
V5    V   0.28571  0.42857  0.12982
V6    V   0.28571  0.42857  0.87018
V7    V   0.28571  0.85714  0.37018
V8    V   0.28571  0.85714  0.62982
V9    V   0.42857  0.14286  0.12982
V10   V   0.42857  0.14286  0.87018
V11   V   0.42857  0.28571  0.37018
V12   V   0.42857  0.28571  0.62982
V13   V   0.57143  0.71429  0.37018
V14   V   0.57143  0.71429  0.62982
V15   V   0.57143  0.85714  0.12982
V16   V   0.57143  0.85714  0.87018
V17   V   0.71429  0.14286  0.37018
V18   V   0.71429  0.14286  0.62982
V19   V   0.71429  0.57143  0.12982
V20   V   0.71429  0.57143  0.87018
V21   V   0.85714  0.28571  0.12982
V22   V   0.85714  0.28571  0.87018
V23   V   0.85714  0.57143  0.37018
V24   V   0.85714  0.57143  0.62982
E1    E   0.00000  0.50000  0.12982
E2    E   0.00000  0.50000  0.37018
E3    E   0.00000  0.50000  0.62982
E4    E   0.00000  0.50000  0.87018
E5    E   0.07143  0.35714  0.12982
E6    E   0.07143  0.35714  0.87018
E7    E   0.07143  0.71429  0.37018
E8    E   0.07143  0.71429  0.62982
E9    E   0.14286  0.42857  0.50000
E10   E   0.14286  0.71429  0.00000
E11   E   0.21428  0.42857  0.25000
E12   E   0.21428  0.42857  0.75000
E13   E   0.21428  0.78571  0.25000
E14   E   0.21428  0.78571  0.75000
E15   E   0.21429  0.42857  0.25000
E16   E   0.21429  0.42857  0.75000
E17   E   0.21429  0.57143  0.12982
E18   E   0.21429  0.57143  0.87018
E19   E   0.21429  0.64286  0.37018
E20   E   0.21429  0.64286  0.62982
E21   E   0.21429  0.78572  0.25000
E22   E   0.21429  0.78572  0.75000
E23   E   0.28571  0.35714  0.37018
E24   E   0.28571  0.35714  0.62982
E25   E   0.28571  0.42857  0.00000
E26   E   0.28571  0.85714  0.50000
E27   E   0.28571  0.92857  0.12982
E28   E   0.28571  0.92857  0.87018
E29   E   0.35714  0.07143  0.37018
E30   E   0.35714  0.07143  0.62982
E31   E   0.35714  0.28571  0.12982
E32   E   0.35714  0.28571  0.87018
E33   E   0.35714  0.57143  0.37018
E34   E   0.35714  0.57143  0.62982
E35   E   0.35714  0.78571  0.12982
E36   E   0.35714  0.78571  0.87018
E37   E   0.42857  0.14286  0.00000
E38   E   0.42857  0.21428  0.25000
E39   E   0.42857  0.21428  0.75000
E40   E   0.42857  0.21429  0.25000
E41   E   0.42857  0.21429  0.75000
E42   E   0.42857  0.28571  0.50000
E43   E   0.42857  0.64286  0.12982
E44   E   0.42857  0.64286  0.87018
E45   E   0.42857  0.78571  0.37018
E46   E   0.42857  0.78571  0.62982
E47   E   0.50000  0.00000  0.12982
E48   E   0.50000  0.00000  0.37018
E49   E   0.50000  0.00000  0.62982
E50   E   0.50000  0.00000  0.87018
E51   E   0.50000  0.50000  0.12982
E52   E   0.50000  0.50000  0.37018
E53   E   0.50000  0.50000  0.62982
E54   E   0.50000  0.50000  0.87018
E55   E   0.57143  0.21429  0.37018
E56   E   0.57143  0.21429  0.62982
E57   E   0.57143  0.35714  0.12982
E58   E   0.57143  0.35714  0.87018
E59   E   0.57143  0.71429  0.50000
E60   E   0.57143  0.78571  0.25000
E61   E   0.57143  0.78571  0.75000
E62   E   0.57143  0.78572  0.25000
E63   E   0.57143  0.78572  0.75000
E64   E   0.57143  0.85714  0.00000
E65   E   0.64286  0.21429  0.12982
E66   E   0.64286  0.21429  0.87018
E67   E   0.64286  0.42857  0.37018
E68   E   0.64286  0.42857  0.62982
E69   E   0.64286  0.71429  0.12982
E70   E   0.64286  0.71429  0.87018
E71   E   0.64286  0.92857  0.37018
E72   E   0.64286  0.92857  0.62982
E73   E   0.71429  0.07143  0.12982
E74   E   0.71429  0.07143  0.87018
E75   E   0.71429  0.14286  0.50000
E76   E   0.71429  0.57143  0.00000
E77   E   0.71429  0.64286  0.37018
E78   E   0.71429  0.64286  0.62982
E79   E   0.78571  0.21428  0.25000
E80   E   0.78571  0.21428  0.75000
E81   E   0.78571  0.35714  0.37018
E82   E   0.78571  0.35714  0.62982
E83   E   0.78571  0.42857  0.12982
E84   E   0.78571  0.42857  0.87018
E85   E   0.78571  0.57143  0.25000
E86   E   0.78571  0.57143  0.75000
E87   E   0.78572  0.21429  0.25000
E88   E   0.78572  0.21429  0.75000
E89   E   0.78572  0.57143  0.25000
E90   E   0.78572  0.57143  0.75000
E91   E   0.85714  0.28571  0.00000
E92   E   0.85714  0.57143  0.50000
E93   E   0.92857  0.28571  0.37018
E94   E   0.92857  0.28571  0.62982
E95   E   0.92857  0.64286  0.12982
E96   E   0.92857  0.64286  0.87018
loop_
