data_wjd_P-62c  hall_number: 484, V_con: 6
_audit_creation_date              2025-03-06
_audit_creation_method            'MOFbuilder_1.0'
_symmetry_space_group_name_H-M    'P1'
_symmetry_Int_Tables_number       1
_symmetry_cell_setting            triclinic
loop_
_symmetry_equiv_pos_as_xyz
  x,y,z
_cell_length_a                    19.8285
_cell_length_b                    19.8285
_cell_length_c                    37.9432
_cell_angle_alpha                 90.0
_cell_angle_beta                  90.0
_cell_angle_gamma                 120.0
loop_
_atom_site_label
_atom_site_type_symbol
_atom_site_fract_x
_atom_site_fract_y
_atom_site_fract_z
V1    V   0.12861  0.33333  0.61822
V2    V   0.12861  0.33333  0.88178
V3    V   0.20472  0.87139  0.61822
V4    V   0.20472  0.87139  0.88178
V5    V   0.33333  0.12861  0.11822
V6    V   0.33333  0.12861  0.38178
V7    V   0.66667  0.79528  0.61822
V8    V   0.66667  0.79528  0.88178
V9    V   0.79528  0.66667  0.11822
V10   V   0.79528  0.66667  0.38178
V11   V   0.87139  0.20472  0.11822
V12   V   0.87139  0.20472  0.38178
E1    E   0.00000  0.26903  0.00000
E2    E   0.00000  0.26903  0.50000
E3    E   0.06431  0.89764  0.11822
E4    E   0.06431  0.89764  0.38178
E5    E   0.10236  0.16667  0.11822
E6    E   0.10236  0.16667  0.38178
E7    E   0.12861  0.33333  0.75000
E8    E   0.16667  0.10236  0.61822
E9    E   0.16667  0.10236  0.88178
E10   E   0.16667  0.60236  0.61822
E11   E   0.16667  0.60236  0.88178
E12   E   0.20472  0.87139  0.75000
E13   E   0.26903  0.00000  0.00000
E14   E   0.26903  0.00000  0.50000
E15   E   0.33333  0.12861  0.25000
E16   E   0.39764  0.56431  0.61822
E17   E   0.39764  0.56431  0.88178
E18   E   0.43569  0.83333  0.61822
E19   E   0.43569  0.83333  0.88178
E20   E   0.56431  0.39764  0.11822
E21   E   0.56431  0.39764  0.38178
E22   E   0.60236  0.16667  0.11822
E23   E   0.60236  0.16667  0.38178
E24   E   0.66667  0.79528  0.75000
E25   E   0.73097  0.73097  0.00000
E26   E   0.73097  0.73097  0.50000
E27   E   0.79528  0.66667  0.25000
E28   E   0.83333  0.43569  0.11822
E29   E   0.83333  0.43569  0.38178
E30   E   0.83333  0.93569  0.11822
E31   E   0.83333  0.93569  0.38178
E32   E   0.87139  0.20472  0.25000
E33   E   0.89764  0.06431  0.61822
E34   E   0.89764  0.06431  0.88178
E35   E   0.93569  0.83333  0.61822
E36   E   0.93569  0.83333  0.88178
loop_
