data_wje_P6222  hall_number: 474, V_con: 4
_audit_creation_date              2025-03-06
_audit_creation_method            'MOFbuilder_1.0'
_symmetry_space_group_name_H-M    'P1'
_symmetry_Int_Tables_number       1
_symmetry_cell_setting            triclinic
loop_
_symmetry_equiv_pos_as_xyz
  x,y,z
_cell_length_a                    27.4644
_cell_length_b                    27.4644
_cell_length_c                    24.456699999999998
_cell_angle_alpha                 90.0
_cell_angle_beta                  90.0
_cell_angle_gamma                 120.0
loop_
_atom_site_label
_atom_site_type_symbol
_atom_site_fract_x
_atom_site_fract_y
_atom_site_fract_z
V1    V   0.02600  0.33235  0.36954
V2    V   0.02600  0.69365  0.96380
V3    V   0.30635  0.33235  0.63046
V4    V   0.30635  0.97400  0.70287
V5    V   0.33235  0.02600  0.29713
V6    V   0.33235  0.30635  0.03620
V7    V   0.66765  0.69365  0.03620
V8    V   0.66765  0.97400  0.29713
V9    V   0.69365  0.02600  0.70287
V10   V   0.69365  0.66765  0.63046
V11   V   0.97400  0.30635  0.96380
V12   V   0.97400  0.66765  0.36954
E1    E   0.00000  0.31935  0.16667
E2    E   0.00000  0.31935  0.16667
E3    E   0.00000  0.50000  0.36954
E4    E   0.00000  0.50000  0.96380
E5    E   0.00000  0.68065  0.16667
E6    E   0.00000  0.68065  0.16667
E7    E   0.15317  0.30634  0.00000
E8    E   0.15317  0.30634  1.00000
E9    E   0.15317  0.84683  0.33333
E10   E   0.15317  0.84683  0.33334
E11   E   0.16617  0.33235  0.50000
E12   E   0.16617  0.83382  0.83334
E13   E   0.16618  0.33235  0.50000
E14   E   0.16618  0.83383  0.83333
E15   E   0.30634  0.15317  0.66666
E16   E   0.30634  0.15317  0.66667
E17   E   0.31935  0.00000  0.50000
E18   E   0.31935  0.31935  0.83333
E19   E   0.33235  0.16617  0.16667
E20   E   0.33235  0.16618  0.16666
E21   E   0.50000  0.00000  0.29713
E22   E   0.50000  0.00000  0.70287
E23   E   0.50000  0.50000  0.03620
E24   E   0.50000  0.50000  0.63046
E25   E   0.66765  0.83382  0.16666
E26   E   0.66765  0.83383  0.16667
E27   E   0.68065  0.00000  0.50000
E28   E   0.68065  0.68065  0.83333
E29   E   0.69366  0.84683  0.66666
E30   E   0.69366  0.84683  0.66667
E31   E   0.83382  0.16617  0.83333
E32   E   0.83382  0.66765  0.50000
E33   E   0.83383  0.16618  0.83334
E34   E   0.83383  0.66765  0.50000
E35   E   0.84683  0.15317  0.33333
E36   E   0.84683  0.15317  0.33334
E37   E   0.84683  0.69366  0.00000
E38   E   0.84683  0.69366  1.00000
loop_
