data_wjf_P6222  hall_number: 474, V_con: 4
_audit_creation_date              2025-03-06
_audit_creation_method            'MOFbuilder_1.0'
_symmetry_space_group_name_H-M    'P1'
_symmetry_Int_Tables_number       1
_symmetry_cell_setting            triclinic
loop_
_symmetry_equiv_pos_as_xyz
  x,y,z
_cell_length_a                    36.5668
_cell_length_b                    36.5668
_cell_length_c                    17.2304
_cell_angle_alpha                 90.0
_cell_angle_beta                  90.0
_cell_angle_gamma                 120.0
loop_
_atom_site_label
_atom_site_type_symbol
_atom_site_fract_x
_atom_site_fract_y
_atom_site_fract_z
V1    V   0.08016  0.42228  0.91667
V2    V   0.08016  0.65788  0.41666
V3    V   0.34212  0.42228  0.08333
V4    V   0.34212  0.91984  0.25000
V5    V   0.42228  0.08016  0.75000
V6    V   0.42228  0.34212  0.58334
V7    V   0.57772  0.65788  0.58334
V8    V   0.57772  0.91984  0.75000
V9    V   0.65788  0.08016  0.25000
V10   V   0.65788  0.57772  0.08333
V11   V   0.91984  0.34212  0.41666
V12   V   0.91984  0.57772  0.91667
E1    E   0.00000  0.38220  0.16666
E2    E   0.00000  0.38220  0.16667
E3    E   0.00000  0.38220  0.66666
E4    E   0.00000  0.38220  0.66667
E5    E   0.00000  0.50000  0.41666
E6    E   0.00000  0.50000  0.91667
E7    E   0.00000  0.61780  0.16666
E8    E   0.00000  0.61780  0.16667
E9    E   0.00000  0.61780  0.66666
E10   E   0.00000  0.61780  0.66667
E11   E   0.21114  0.42228  0.00000
E12   E   0.21114  0.78886  0.33333
E13   E   0.38220  0.00000  0.00000
E14   E   0.38220  0.00000  0.50000
E15   E   0.38220  0.00000  0.50000
E16   E   0.38220  0.00000  1.00000
E17   E   0.38220  0.38220  0.33333
E18   E   0.38220  0.38220  0.33334
E19   E   0.38220  0.38220  0.83333
E20   E   0.38220  0.38220  0.83334
E21   E   0.42228  0.21114  0.66667
E22   E   0.50000  0.00000  0.25000
E23   E   0.50000  0.00000  0.75000
E24   E   0.50000  0.50000  0.08333
E25   E   0.50000  0.50000  0.58334
E26   E   0.57772  0.78886  0.66667
E27   E   0.61780  0.00000  0.00000
E28   E   0.61780  0.00000  0.50000
E29   E   0.61780  0.00000  0.50000
E30   E   0.61780  0.00000  1.00000
E31   E   0.61780  0.61780  0.33333
E32   E   0.61780  0.61780  0.33334
E33   E   0.61780  0.61780  0.83333
E34   E   0.61780  0.61780  0.83334
E35   E   0.78886  0.21114  0.33333
E36   E   0.78886  0.57772  0.00000
loop_
