data_wji_P6122  hall_number: 472, V_con: 4
_audit_creation_date              2025-03-06
_audit_creation_method            'MOFbuilder_1.0'
_symmetry_space_group_name_H-M    'P1'
_symmetry_Int_Tables_number       1
_symmetry_cell_setting            triclinic
loop_
_symmetry_equiv_pos_as_xyz
  x,y,z
_cell_length_a                    39.1463
_cell_length_b                    39.1463
_cell_length_c                    14.7248
_cell_angle_alpha                 90.0
_cell_angle_beta                  90.0
_cell_angle_gamma                 120.0
loop_
_atom_site_label
_atom_site_type_symbol
_atom_site_fract_x
_atom_site_fract_y
_atom_site_fract_z
V1    V   0.09981  0.42218  0.58334
V2    V   0.09981  0.67763  0.58333
V3    V   0.32237  0.42218  0.91666
V4    V   0.32237  0.90019  0.25000
V5    V   0.42218  0.09981  0.75000
V6    V   0.42218  0.32237  0.41667
V7    V   0.57782  0.67763  0.91667
V8    V   0.57782  0.90019  0.25000
V9    V   0.67763  0.09981  0.75000
V10   V   0.67763  0.57782  0.41666
V11   V   0.90019  0.32237  0.08333
V12   V   0.90019  0.57782  0.08334
E1    E   0.00000  0.37227  0.33333
E2    E   0.00000  0.37227  0.33334
E3    E   0.00000  0.37227  0.83333
E4    E   0.00000  0.37227  0.83334
E5    E   0.00000  0.62773  0.33333
E6    E   0.00000  0.62773  0.33334
E7    E   0.00000  0.62773  0.83333
E8    E   0.00000  0.62773  0.83334
E9    E   0.09980  0.54990  0.58333
E10   E   0.09980  0.54990  0.58334
E11   E   0.21109  0.42218  0.75000
E12   E   0.21109  0.42218  0.75000
E13   E   0.21109  0.78891  0.41666
E14   E   0.21109  0.78891  0.41667
E15   E   0.37227  0.00000  0.00000
E16   E   0.37227  0.00000  0.50000
E17   E   0.37227  0.00000  0.50000
E18   E   0.37227  0.00000  1.00000
E19   E   0.37227  0.37227  0.16666
E20   E   0.37227  0.37227  0.16667
E21   E   0.37227  0.37227  0.66666
E22   E   0.37227  0.37227  0.66667
E23   E   0.42218  0.21109  0.58333
E24   E   0.42218  0.21109  0.58334
E25   E   0.45010  0.54990  0.91667
E26   E   0.45010  0.90020  0.25000
E27   E   0.45010  0.54990  0.91666
E28   E   0.45010  0.90020  0.25000
E29   E   0.54990  0.09980  0.75000
E30   E   0.54990  0.09980  0.75000
E31   E   0.54990  0.45010  0.41666
E32   E   0.54990  0.45010  0.41667
E33   E   0.57782  0.78891  0.08333
E34   E   0.57782  0.78891  0.08334
E35   E   0.62773  0.00000  0.00000
E36   E   0.62773  0.00000  0.50000
E37   E   0.62773  0.00000  0.50000
E38   E   0.62773  0.00000  1.00000
E39   E   0.62773  0.62773  0.16666
E40   E   0.62773  0.62773  0.16667
E41   E   0.62773  0.62773  0.66666
E42   E   0.62773  0.62773  0.66667
E43   E   0.78891  0.21109  0.91666
E44   E   0.78891  0.21109  0.91667
E45   E   0.78891  0.57782  0.25000
E46   E   0.78891  0.57782  0.25000
E47   E   0.90020  0.45010  0.08334
E48   E   0.90020  0.45010  0.08333
loop_
