data_wjm_P6222  hall_number: 474, V_con: 5
_audit_creation_date              2025-03-06
_audit_creation_method            'MOFbuilder_1.0'
_symmetry_space_group_name_H-M    'P1'
_symmetry_Int_Tables_number       1
_symmetry_cell_setting            triclinic
loop_
_symmetry_equiv_pos_as_xyz
  x,y,z
_cell_length_a                    25.0175
_cell_length_b                    25.0175
_cell_length_c                    24.9848
_cell_angle_alpha                 90.0
_cell_angle_beta                  90.0
_cell_angle_gamma                 120.0
loop_
_atom_site_label
_atom_site_type_symbol
_atom_site_fract_x
_atom_site_fract_y
_atom_site_fract_z
V1    V   0.16319  0.44027  0.80817
V2    V   0.16319  0.72292  0.52516
V3    V   0.27708  0.44027  0.19183
V4    V   0.27708  0.83681  0.14150
V5    V   0.44027  0.16319  0.85850
V6    V   0.44027  0.27708  0.47484
V7    V   0.55973  0.72292  0.47484
V8    V   0.55973  0.83681  0.85850
V9    V   0.72292  0.16319  0.14150
V10   V   0.72292  0.55973  0.19183
V11   V   0.83681  0.27708  0.52516
V12   V   0.83681  0.55973  0.80817
E1    E   0.00000  0.35868  0.66666
E2    E   0.00000  0.35868  0.66667
E3    E   0.00000  0.50000  0.52516
E4    E   0.00000  0.50000  0.80817
E5    E   0.00000  0.64132  0.66666
E6    E   0.00000  0.64132  0.66667
E7    E   0.16318  0.58159  0.66666
E8    E   0.16318  0.58159  0.66667
E9    E   0.22013  0.44027  0.00000
E10   E   0.22013  0.77986  0.33333
E11   E   0.22014  0.44027  0.00000
E12   E   0.22014  0.77987  0.33333
E13   E   0.27708  0.63854  0.16666
E14   E   0.27708  0.63854  0.16667
E15   E   0.35868  0.00000  0.00000
E16   E   0.35868  0.00000  1.00000
E17   E   0.35868  0.35868  0.33333
E18   E   0.35868  0.35868  0.33334
E19   E   0.36146  0.63854  0.83333
E20   E   0.36146  0.63854  0.83334
E21   E   0.36146  0.72292  0.50000
E22   E   0.36146  0.72292  0.50000
E23   E   0.41841  0.58159  0.33334
E24   E   0.41841  0.83682  1.00000
E25   E   0.41841  0.58159  0.33333
E26   E   0.41841  0.83682  0.00000
E27   E   0.44027  0.22013  0.66667
E28   E   0.44027  0.22014  0.66667
E29   E   0.50000  0.00000  0.14150
E30   E   0.50000  0.00000  0.85850
E31   E   0.50000  0.50000  0.19183
E32   E   0.50000  0.50000  0.47484
E33   E   0.55973  0.77986  0.66667
E34   E   0.55973  0.77987  0.66667
E35   E   0.58159  0.16318  0.00000
E36   E   0.58159  0.16318  1.00000
E37   E   0.58159  0.41841  0.33333
E38   E   0.58159  0.41841  0.33334
E39   E   0.63854  0.27708  0.50000
E40   E   0.63854  0.27708  0.50000
E41   E   0.63854  0.36146  0.83333
E42   E   0.63854  0.36146  0.83334
E43   E   0.64132  0.00000  0.00000
E44   E   0.64132  0.00000  1.00000
E45   E   0.64132  0.64132  0.33333
E46   E   0.64132  0.64132  0.33334
E47   E   0.72292  0.36146  0.16666
E48   E   0.72292  0.36146  0.16667
E49   E   0.77986  0.22013  0.33333
E50   E   0.77986  0.55973  0.00000
E51   E   0.77987  0.22014  0.33333
E52   E   0.77987  0.55973  0.00000
E53   E   0.83682  0.41841  0.66667
E54   E   0.83682  0.41841  0.66666
loop_
