data_wjo_P6122  hall_number: 472, V_con: 5
_audit_creation_date              2025-03-06
_audit_creation_method            'MOFbuilder_1.0'
_symmetry_space_group_name_H-M    'P1'
_symmetry_Int_Tables_number       1
_symmetry_cell_setting            triclinic
loop_
_symmetry_equiv_pos_as_xyz
  x,y,z
_cell_length_a                    25.4387
_cell_length_b                    25.4387
_cell_length_c                    22.3676
_cell_angle_alpha                 90.0
_cell_angle_beta                  90.0
_cell_angle_gamma                 120.0
loop_
_atom_site_label
_atom_site_type_symbol
_atom_site_fract_x
_atom_site_fract_y
_atom_site_fract_z
V1    V   0.17900  0.41969  0.47077
V2    V   0.17900  0.75931  0.69590
V3    V   0.24069  0.41969  0.02923
V4    V   0.24069  0.82100  0.13744
V5    V   0.41969  0.17900  0.86256
V6    V   0.41969  0.24069  0.30410
V7    V   0.58031  0.75931  0.80410
V8    V   0.58031  0.82100  0.36256
V9    V   0.75931  0.17900  0.63744
V10   V   0.75931  0.58031  0.52923
V11   V   0.82100  0.24069  0.19590
V12   V   0.82100  0.58031  0.97077
E1    E   0.00000  0.33019  0.33333
E2    E   0.00000  0.33019  0.33334
E3    E   0.00000  0.66981  0.83333
E4    E   0.00000  0.66981  0.83334
E5    E   0.03085  0.33019  0.11257
E6    E   0.03085  0.70066  0.05410
E7    E   0.17900  0.58950  0.58333
E8    E   0.17900  0.58950  0.58334
E9    E   0.20984  0.41969  0.25000
E10   E   0.20984  0.79015  0.91667
E11   E   0.20985  0.41969  0.25000
E12   E   0.20985  0.79016  0.91667
E13   E   0.29934  0.33019  0.38743
E14   E   0.29934  0.96915  0.77923
E15   E   0.33019  0.00000  0.00000
E16   E   0.33019  0.00000  1.00000
E17   E   0.33019  0.03085  0.22077
E18   E   0.33019  0.29934  0.94590
E19   E   0.33019  0.33019  0.16666
E20   E   0.33019  0.33019  0.16667
E21   E   0.41050  0.58950  0.91666
E22   E   0.41050  0.58950  0.91667
E23   E   0.41050  0.82100  0.25000
E24   E   0.41050  0.82100  0.25000
E25   E   0.41969  0.20984  0.08333
E26   E   0.41969  0.20985  0.08333
E27   E   0.58031  0.79015  0.58333
E28   E   0.58031  0.79016  0.58333
E29   E   0.58950  0.17900  0.75000
E30   E   0.58950  0.17900  0.75000
E31   E   0.58950  0.41050  0.41666
E32   E   0.58950  0.41050  0.41667
E33   E   0.66981  0.00000  0.50000
E34   E   0.66981  0.00000  0.50000
E35   E   0.66981  0.66981  0.66666
E36   E   0.66981  0.66981  0.66667
E37   E   0.66981  0.70066  0.44590
E38   E   0.66981  0.96915  0.72077
E39   E   0.70066  0.03085  0.27923
E40   E   0.70066  0.66981  0.88743
E41   E   0.79015  0.20984  0.41667
E42   E   0.79015  0.58031  0.75000
E43   E   0.79016  0.20985  0.41667
E44   E   0.79016  0.58031  0.75000
E45   E   0.82100  0.41050  0.08333
E46   E   0.82100  0.41050  0.08334
E47   E   0.96915  0.29934  0.55410
E48   E   0.96915  0.66981  0.61257
loop_
