data_wjq_P6222  hall_number: 474, V_con: 5
_audit_creation_date              2025-03-06
_audit_creation_method            'MOFbuilder_1.0'
_symmetry_space_group_name_H-M    'P1'
_symmetry_Int_Tables_number       1
_symmetry_cell_setting            triclinic
loop_
_symmetry_equiv_pos_as_xyz
  x,y,z
_cell_length_a                    19.3185
_cell_length_b                    19.3185
_cell_length_c                    50.190799999999996
_cell_angle_alpha                 90.0
_cell_angle_beta                  90.0
_cell_angle_gamma                 120.0
loop_
_atom_site_label
_atom_site_type_symbol
_atom_site_fract_x
_atom_site_fract_y
_atom_site_fract_z
V1    V   0.07735  0.28868  0.40377
V2    V   0.07735  0.78867  0.92956
V3    V   0.21133  0.28868  0.59623
V4    V   0.21133  0.92265  0.73711
V5    V   0.28868  0.07735  0.26289
V6    V   0.28868  0.21133  0.07044
V7    V   0.71132  0.78867  0.07044
V8    V   0.71132  0.92265  0.26289
V9    V   0.78867  0.07735  0.73711
V10   V   0.78867  0.71132  0.59623
V11   V   0.92265  0.21133  0.92956
V12   V   0.92265  0.71132  0.40377
E1    E   0.00000  0.00000  0.07044
E2    E   0.00000  0.00000  0.26289
E3    E   0.00000  0.00000  0.40377
E4    E   0.00000  0.00000  0.59623
E5    E   0.00000  0.00000  0.73711
E6    E   0.00000  0.00000  0.92956
E7    E   0.00000  0.18301  0.66667
E8    E   0.00000  0.50000  0.40377
E9    E   0.00000  0.50000  0.92956
E10   E   0.00000  0.81699  0.66667
E11   E   0.10566  0.21133  0.00000
E12   E   0.10566  0.89433  0.33333
E13   E   0.10567  0.21133  0.00000
E14   E   0.10567  0.89434  0.33333
E15   E   0.14434  0.28868  0.50000
E16   E   0.14434  0.28868  0.50000
E17   E   0.14434  0.85566  0.83333
E18   E   0.14434  0.85566  0.83334
E19   E   0.18301  0.00000  0.00000
E20   E   0.18301  0.18301  0.33333
E21   E   0.21133  0.10566  0.66667
E22   E   0.21133  0.10567  0.66667
E23   E   0.28868  0.14434  0.16666
E24   E   0.28868  0.14434  0.16667
E25   E   0.50000  0.00000  0.26289
E26   E   0.50000  0.00000  0.73711
E27   E   0.50000  0.50000  0.07044
E28   E   0.50000  0.50000  0.59623
E29   E   0.71132  0.85566  0.16666
E30   E   0.71132  0.85566  0.16667
E31   E   0.78867  0.89433  0.66667
E32   E   0.78867  0.89434  0.66667
E33   E   0.81699  0.00000  0.00000
E34   E   0.81699  0.81699  0.33333
E35   E   0.85566  0.14434  0.83333
E36   E   0.85566  0.14434  0.83334
E37   E   0.85566  0.71132  0.50000
E38   E   0.85566  0.71132  0.50000
E39   E   0.89433  0.10566  0.33333
E40   E   0.89433  0.78867  0.00000
E41   E   0.89434  0.10567  0.33333
E42   E   0.89434  0.78867  0.00000
loop_
