data_wjv_P6222  hall_number: 474, V_con: 5
_audit_creation_date              2025-03-06
_audit_creation_method            'MOFbuilder_1.0'
_symmetry_space_group_name_H-M    'P1'
_symmetry_Int_Tables_number       1
_symmetry_cell_setting            triclinic
loop_
_symmetry_equiv_pos_as_xyz
  x,y,z
_cell_length_a                    22.9664
_cell_length_b                    22.9664
_cell_length_c                    27.918
_cell_angle_alpha                 90.0
_cell_angle_beta                  90.0
_cell_angle_gamma                 120.0
loop_
_atom_site_label
_atom_site_type_symbol
_atom_site_fract_x
_atom_site_fract_y
_atom_site_fract_z
V1    V   0.09202  0.34341  0.83333
V2    V   0.09202  0.74861  0.50000
V3    V   0.25139  0.34341  0.16667
V4    V   0.25139  0.90798  0.16666
V5    V   0.34341  0.09202  0.83334
V6    V   0.34341  0.25139  0.50000
V7    V   0.65659  0.74861  0.50000
V8    V   0.65659  0.90798  0.83334
V9    V   0.74861  0.09202  0.16666
V10   V   0.74861  0.65659  0.16667
V11   V   0.90798  0.25139  0.50000
V12   V   0.90798  0.65659  0.83333
E1    E   0.00000  0.21771  0.16666
E2    E   0.00000  0.21771  0.16667
E3    E   0.00000  0.29740  0.66666
E4    E   0.00000  0.29740  0.66667
E5    E   0.00000  0.50000  0.50000
E6    E   0.00000  0.50000  0.83333
E7    E   0.00000  0.70260  0.66666
E8    E   0.00000  0.70260  0.66667
E9    E   0.00000  0.78229  0.16666
E10   E   0.00000  0.78229  0.16667
E11   E   0.12569  0.25139  0.50000
E12   E   0.12569  0.87430  0.83334
E13   E   0.12570  0.25139  0.50000
E14   E   0.12570  0.87431  0.83333
E15   E   0.17170  0.34341  0.00000
E16   E   0.17170  0.82829  0.33333
E17   E   0.17171  0.34341  0.00000
E18   E   0.17171  0.82830  0.33333
E19   E   0.21771  0.00000  0.50000
E20   E   0.21771  0.00000  0.50000
E21   E   0.21771  0.21771  0.83333
E22   E   0.21771  0.21771  0.83334
E23   E   0.25139  0.12569  0.16667
E24   E   0.25139  0.12570  0.16666
E25   E   0.29740  0.00000  0.00000
E26   E   0.29740  0.00000  1.00000
E27   E   0.29740  0.29740  0.33333
E28   E   0.29740  0.29740  0.33334
E29   E   0.34341  0.17170  0.66667
E30   E   0.34341  0.17171  0.66667
E31   E   0.50000  0.00000  0.16666
E32   E   0.50000  0.00000  0.83334
E33   E   0.50000  0.50000  0.16667
E34   E   0.50000  0.50000  0.50000
E35   E   0.65659  0.82829  0.66667
E36   E   0.65659  0.82830  0.66667
E37   E   0.70260  0.00000  0.00000
E38   E   0.70260  0.00000  1.00000
E39   E   0.70260  0.70260  0.33333
E40   E   0.70260  0.70260  0.33334
E41   E   0.74861  0.87430  0.16666
E42   E   0.74861  0.87431  0.16667
E43   E   0.78229  0.00000  0.50000
E44   E   0.78229  0.00000  0.50000
E45   E   0.78229  0.78229  0.83333
E46   E   0.78229  0.78229  0.83334
E47   E   0.82829  0.17170  0.33333
E48   E   0.82829  0.65659  0.00000
E49   E   0.82830  0.17171  0.33333
E50   E   0.82830  0.65659  0.00000
E51   E   0.87430  0.12569  0.83333
E52   E   0.87430  0.74861  0.50000
E53   E   0.87431  0.12570  0.83334
E54   E   0.87431  0.74861  0.50000
loop_
