data_wjw_P6222  hall_number: 474, V_con: 5
_audit_creation_date              2025-03-06
_audit_creation_method            'MOFbuilder_1.0'
_symmetry_space_group_name_H-M    'P1'
_symmetry_Int_Tables_number       1
_symmetry_cell_setting            triclinic
loop_
_symmetry_equiv_pos_as_xyz
  x,y,z
_cell_length_a                    22.907700000000002
_cell_length_b                    22.907700000000002
_cell_length_c                    26.3688
_cell_angle_alpha                 90.0
_cell_angle_beta                  90.0
_cell_angle_gamma                 120.0
loop_
_atom_site_label
_atom_site_type_symbol
_atom_site_fract_x
_atom_site_fract_y
_atom_site_fract_z
V1    V   0.15737  0.40819  0.31478
V2    V   0.15737  0.74918  0.01855
V3    V   0.25082  0.40819  0.68522
V4    V   0.25082  0.84263  0.64811
V5    V   0.40819  0.15737  0.35189
V6    V   0.40819  0.25082  0.98145
V7    V   0.59181  0.74918  0.98145
V8    V   0.59181  0.84263  0.35189
V9    V   0.74918  0.15737  0.64811
V10   V   0.74918  0.59181  0.68522
V11   V   0.84263  0.25082  0.01855
V12   V   0.84263  0.59181  0.31478
E1    E   0.00000  0.28278  0.66666
E2    E   0.00000  0.28278  0.66667
E3    E   0.00000  0.32951  0.16666
E4    E   0.00000  0.32951  0.16667
E5    E   0.00000  0.50000  0.01855
E6    E   0.00000  0.50000  0.31478
E7    E   0.00000  0.67049  0.16666
E8    E   0.00000  0.67049  0.16667
E9    E   0.00000  0.71722  0.66666
E10   E   0.00000  0.71722  0.66667
E11   E   0.20409  0.40819  0.50000
E12   E   0.20409  0.79590  0.83333
E13   E   0.20410  0.40819  0.50000
E14   E   0.20410  0.79591  0.83333
E15   E   0.25082  0.62541  0.66666
E16   E   0.25082  0.62541  0.66667
E17   E   0.28278  0.00000  0.00000
E18   E   0.28278  0.00000  1.00000
E19   E   0.28278  0.28278  0.33333
E20   E   0.28278  0.28278  0.33334
E21   E   0.32951  0.00000  0.50000
E22   E   0.32951  0.00000  0.50000
E23   E   0.32951  0.32951  0.83333
E24   E   0.32951  0.32951  0.83334
E25   E   0.37459  0.62541  0.33333
E26   E   0.37459  0.62541  0.33334
E27   E   0.37459  0.74918  0.00000
E28   E   0.37459  0.74918  1.00000
E29   E   0.40819  0.20409  0.16667
E30   E   0.40819  0.20410  0.16667
E31   E   0.50000  0.00000  0.35189
E32   E   0.50000  0.00000  0.64811
E33   E   0.50000  0.50000  0.68522
E34   E   0.50000  0.50000  0.98145
E35   E   0.59181  0.79590  0.16667
E36   E   0.59181  0.79591  0.16667
E37   E   0.62541  0.25082  0.00000
E38   E   0.62541  0.25082  1.00000
E39   E   0.62541  0.37459  0.33333
E40   E   0.62541  0.37459  0.33334
E41   E   0.67049  0.00000  0.50000
E42   E   0.67049  0.00000  0.50000
E43   E   0.67049  0.67049  0.83333
E44   E   0.67049  0.67049  0.83334
E45   E   0.71722  0.00000  0.00000
E46   E   0.71722  0.00000  1.00000
E47   E   0.71722  0.71722  0.33333
E48   E   0.71722  0.71722  0.33334
E49   E   0.74918  0.37459  0.66666
E50   E   0.74918  0.37459  0.66667
E51   E   0.79590  0.20409  0.83333
E52   E   0.79590  0.59181  0.50000
E53   E   0.79591  0.20410  0.83333
E54   E   0.79591  0.59181  0.50000
loop_
