data_wkk_P6222  hall_number: 474, V_con: 6
_audit_creation_date              2025-03-06
_audit_creation_method            'MOFbuilder_1.0'
_symmetry_space_group_name_H-M    'P1'
_symmetry_Int_Tables_number       1
_symmetry_cell_setting            triclinic
loop_
_symmetry_equiv_pos_as_xyz
  x,y,z
_cell_length_a                    44.2588
_cell_length_b                    44.2588
_cell_length_c                    10.0
_cell_angle_alpha                 90.0
_cell_angle_beta                  90.0
_cell_angle_gamma                 120.0
loop_
_atom_site_label
_atom_site_type_symbol
_atom_site_fract_x
_atom_site_fract_y
_atom_site_fract_z
V1    V   0.12862  0.45292  0.75000
V2    V   0.12862  0.67570  0.58333
V3    V   0.32430  0.45292  0.25000
V4    V   0.32430  0.87138  0.08333
V5    V   0.45292  0.12862  0.91667
V6    V   0.45292  0.32430  0.41667
V7    V   0.54708  0.67570  0.41667
V8    V   0.54708  0.87138  0.91667
V9    V   0.67570  0.12862  0.08333
V10   V   0.67570  0.54708  0.25000
V11   V   0.87138  0.32430  0.58333
V12   V   0.87138  0.54708  0.75000
E1    E   0.00000  0.38861  0.66666
E2    E   0.00000  0.38861  0.66667
E3    E   0.00000  0.61139  0.66666
E4    E   0.00000  0.61139  0.66667
E5    E   0.12862  0.56431  0.66666
E6    E   0.12862  0.56431  0.66667
E7    E   0.12862  0.45292  0.25000
E8    E   0.12862  0.67570  0.08333
E9    E   0.22646  0.45292  0.00000
E10   E   0.22646  0.45292  0.50000
E11   E   0.22646  0.77354  0.33333
E12   E   0.22646  0.77354  0.83333
E13   E   0.32430  0.45292  0.75000
E14   E   0.32430  0.87138  0.58333
E15   E   0.38861  0.00000  0.00000
E16   E   0.38861  0.00000  1.00000
E17   E   0.38861  0.38861  0.33333
E18   E   0.38861  0.38861  0.33334
E19   E   0.43569  0.56431  0.33333
E20   E   0.43569  0.56431  0.33334
E21   E   0.43569  0.87138  0.00000
E22   E   0.43569  0.87138  1.00000
E23   E   0.45292  0.12862  0.41667
E24   E   0.45292  0.22646  0.16667
E25   E   0.45292  0.22646  0.16667
E26   E   0.45292  0.22646  0.66667
E27   E   0.45292  0.32430  0.91667
E28   E   0.54708  0.67570  0.91667
E29   E   0.54708  0.77354  0.16667
E30   E   0.54708  0.77354  0.16667
E31   E   0.54708  0.77354  0.66667
E32   E   0.54708  0.87138  0.41667
E33   E   0.56431  0.12862  0.00000
E34   E   0.56431  0.12862  1.00000
E35   E   0.56431  0.43569  0.33333
E36   E   0.56431  0.43569  0.33334
E37   E   0.61139  0.00000  0.00000
E38   E   0.61139  0.00000  1.00000
E39   E   0.61139  0.61139  0.33333
E40   E   0.61139  0.61139  0.33334
E41   E   0.67570  0.12862  0.58333
E42   E   0.67570  0.54708  0.75000
E43   E   0.77354  0.22646  0.33333
E44   E   0.77354  0.22646  0.83333
E45   E   0.77354  0.54708  0.00000
E46   E   0.77354  0.54708  0.50000
E47   E   0.87138  0.32430  0.08333
E48   E   0.87138  0.43569  0.66666
E49   E   0.87138  0.43569  0.66667
E50   E   0.87138  0.54708  0.25000
loop_
