data_wkm_P6122  hall_number: 472, V_con: 6
_audit_creation_date              2025-03-06
_audit_creation_method            'MOFbuilder_1.0'
_symmetry_space_group_name_H-M    'P1'
_symmetry_Int_Tables_number       1
_symmetry_cell_setting            triclinic
loop_
_symmetry_equiv_pos_as_xyz
  x,y,z
_cell_length_a                    43.8563
_cell_length_b                    43.8563
_cell_length_c                    9.9999
_cell_angle_alpha                 90.0
_cell_angle_beta                  90.0
_cell_angle_gamma                 120.0
loop_
_atom_site_label
_atom_site_type_symbol
_atom_site_fract_x
_atom_site_fract_y
_atom_site_fract_z
V1    V   0.11401  0.44300  0.58333
V2    V   0.11401  0.67101  0.58334
V3    V   0.32899  0.44300  0.91667
V4    V   0.32899  0.88599  0.24999
V5    V   0.44300  0.11401  0.75001
V6    V   0.44300  0.32899  0.41666
V7    V   0.55700  0.67101  0.91666
V8    V   0.55700  0.88599  0.25001
V9    V   0.67101  0.11401  0.74999
V10   V   0.67101  0.55700  0.41667
V11   V   0.88599  0.32899  0.08334
V12   V   0.88599  0.55700  0.08333
E1    E   0.00000  0.38599  0.33333
E2    E   0.00000  0.38599  0.33334
E3    E   0.00000  0.38599  0.83333
E4    E   0.00000  0.38599  0.83334
E5    E   0.00000  0.61401  0.33333
E6    E   0.00000  0.61401  0.33334
E7    E   0.00000  0.61401  0.83333
E8    E   0.00000  0.61401  0.83334
E9    E   0.11400  0.55700  0.58333
E10   E   0.11400  0.55700  0.58334
E11   E   0.11401  0.44300  0.08333
E12   E   0.11401  0.67101  0.08334
E13   E   0.22150  0.44300  0.75000
E14   E   0.22150  0.44300  0.75000
E15   E   0.22150  0.77850  0.41666
E16   E   0.22150  0.77850  0.41667
E17   E   0.32899  0.44300  0.41667
E18   E   0.32899  0.88599  0.74999
E19   E   0.38599  0.00000  0.00000
E20   E   0.38599  0.00000  0.50000
E21   E   0.38599  0.00000  0.50000
E22   E   0.38599  0.00000  1.00000
E23   E   0.38599  0.38599  0.16666
E24   E   0.38599  0.38599  0.16667
E25   E   0.38599  0.38599  0.66666
E26   E   0.38599  0.38599  0.66667
E27   E   0.44300  0.55700  0.91667
E28   E   0.44300  0.88600  0.25000
E29   E   0.44300  0.11401  0.25001
E30   E   0.44300  0.22150  0.58333
E31   E   0.44300  0.22150  0.58334
E32   E   0.44300  0.32899  0.91666
E33   E   0.44300  0.55700  0.91666
E34   E   0.44300  0.88600  0.25000
E35   E   0.55700  0.11400  0.75000
E36   E   0.55700  0.44300  0.41666
E37   E   0.55700  0.67101  0.41666
E38   E   0.55700  0.77850  0.08333
E39   E   0.55700  0.77850  0.08334
E40   E   0.55700  0.88599  0.75001
E41   E   0.55700  0.11400  0.75000
E42   E   0.55700  0.44300  0.41667
E43   E   0.61401  0.00000  0.00000
E44   E   0.61401  0.00000  0.50000
E45   E   0.61401  0.00000  0.50000
E46   E   0.61401  0.00000  1.00000
E47   E   0.61401  0.61401  0.16666
E48   E   0.61401  0.61401  0.16667
E49   E   0.61401  0.61401  0.66666
E50   E   0.61401  0.61401  0.66667
E51   E   0.67101  0.11401  0.24999
E52   E   0.67101  0.55700  0.91667
E53   E   0.77850  0.22150  0.91666
E54   E   0.77850  0.22150  0.91667
E55   E   0.77850  0.55700  0.25000
E56   E   0.77850  0.55700  0.25000
E57   E   0.88599  0.32899  0.58334
E58   E   0.88599  0.55700  0.58333
E59   E   0.88600  0.44300  0.08334
E60   E   0.88600  0.44300  0.08333
loop_
