data_wkn_P6122  hall_number: 472, V_con: 6
_audit_creation_date              2025-03-06
_audit_creation_method            'MOFbuilder_1.0'
_symmetry_space_group_name_H-M    'P1'
_symmetry_Int_Tables_number       1
_symmetry_cell_setting            triclinic
loop_
_symmetry_equiv_pos_as_xyz
  x,y,z
_cell_length_a                    43.510600000000004
_cell_length_b                    43.510600000000004
_cell_length_c                    10.0
_cell_angle_alpha                 90.0
_cell_angle_beta                  90.0
_cell_angle_gamma                 120.0
loop_
_atom_site_label
_atom_site_type_symbol
_atom_site_fract_x
_atom_site_fract_y
_atom_site_fract_z
V1    V   0.12510  0.44924  0.49999
V2    V   0.12510  0.67586  0.66668
V3    V   0.32414  0.44924  0.00001
V4    V   0.32414  0.87490  0.16666
V5    V   0.44924  0.12510  0.83334
V6    V   0.44924  0.32414  0.33332
V7    V   0.55076  0.67586  0.83332
V8    V   0.55076  0.87490  0.33334
V9    V   0.67586  0.12510  0.66666
V10   V   0.67586  0.55076  0.50001
V11   V   0.87490  0.32414  0.16668
V12   V   0.87490  0.55076  0.99999
E1    E   0.00000  0.38669  0.33333
E2    E   0.00000  0.38669  0.33334
E3    E   0.00000  0.61331  0.83333
E4    E   0.00000  0.61331  0.83334
E5    E   0.12510  0.44924  0.99999
E6    E   0.12510  0.56255  0.58333
E7    E   0.12510  0.56255  0.58334
E8    E   0.12510  0.67586  0.16668
E9    E   0.22462  0.44924  0.25000
E10   E   0.22462  0.44924  0.75000
E11   E   0.22462  0.77538  0.41667
E12   E   0.22462  0.77538  0.91667
E13   E   0.32414  0.44924  0.50001
E14   E   0.32414  0.87490  0.66666
E15   E   0.38669  0.00000  0.00000
E16   E   0.38669  0.00000  1.00000
E17   E   0.38669  0.38669  0.16666
E18   E   0.38669  0.38669  0.16667
E19   E   0.43745  0.56255  0.91666
E20   E   0.43745  0.56255  0.91667
E21   E   0.43745  0.87490  0.25000
E22   E   0.43745  0.87490  0.25000
E23   E   0.44924  0.12510  0.33334
E24   E   0.44924  0.22462  0.08333
E25   E   0.44924  0.22462  0.08333
E26   E   0.44924  0.22462  0.58333
E27   E   0.44924  0.22462  0.58333
E28   E   0.44924  0.32414  0.83332
E29   E   0.55076  0.67586  0.33332
E30   E   0.55076  0.77538  0.08333
E31   E   0.55076  0.77538  0.08333
E32   E   0.55076  0.77538  0.58333
E33   E   0.55076  0.77538  0.58333
E34   E   0.55076  0.87490  0.83334
E35   E   0.56255  0.12510  0.75000
E36   E   0.56255  0.12510  0.75000
E37   E   0.56255  0.43745  0.41666
E38   E   0.56255  0.43745  0.41667
E39   E   0.61331  0.00000  0.50000
E40   E   0.61331  0.00000  0.50000
E41   E   0.61331  0.61331  0.66666
E42   E   0.61331  0.61331  0.66667
E43   E   0.67586  0.12510  0.16666
E44   E   0.67586  0.55076  0.00001
E45   E   0.77538  0.22462  0.41667
E46   E   0.77538  0.22462  0.91667
E47   E   0.77538  0.55076  0.25000
E48   E   0.77538  0.55076  0.75000
E49   E   0.87490  0.32414  0.66668
E50   E   0.87490  0.43745  0.08333
E51   E   0.87490  0.43745  0.08334
E52   E   0.87490  0.55076  0.49999
loop_
