data_wkp_P6122  hall_number: 472, V_con: 6
_audit_creation_date              2025-03-06
_audit_creation_method            'MOFbuilder_1.0'
_symmetry_space_group_name_H-M    'P1'
_symmetry_Int_Tables_number       1
_symmetry_cell_setting            triclinic
loop_
_symmetry_equiv_pos_as_xyz
  x,y,z
_cell_length_a                    26.7742
_cell_length_b                    26.7742
_cell_length_c                    19.557100000000002
_cell_angle_alpha                 90.0
_cell_angle_beta                  90.0
_cell_angle_gamma                 120.0
loop_
_atom_site_label
_atom_site_type_symbol
_atom_site_fract_x
_atom_site_fract_y
_atom_site_fract_z
V1    V   0.16352  0.40521  0.50000
V2    V   0.16352  0.75831  0.66667
V3    V   0.24169  0.40521  0.00000
V4    V   0.24169  0.83648  0.16667
V5    V   0.40521  0.16352  0.83333
V6    V   0.40521  0.24169  0.33333
V7    V   0.59479  0.75831  0.83333
V8    V   0.59479  0.83648  0.33333
V9    V   0.75831  0.16352  0.66667
V10   V   0.75831  0.59479  0.50000
V11   V   0.83648  0.24169  0.16667
V12   V   0.83648  0.59479  0.00000
E1    E   0.00000  0.32345  0.33333
E2    E   0.00000  0.32345  0.33334
E3    E   0.00000  0.67655  0.83333
E4    E   0.00000  0.67655  0.83334
E5    E   0.03908  0.32345  0.08334
E6    E   0.03908  0.71563  0.08333
E7    E   0.16352  0.58176  0.58333
E8    E   0.16352  0.58176  0.58334
E9    E   0.20260  0.40521  0.25000
E10   E   0.20260  0.40521  0.75000
E11   E   0.20260  0.79739  0.41667
E12   E   0.20260  0.79739  0.91667
E13   E   0.20261  0.40521  0.25000
E14   E   0.20261  0.40521  0.75000
E15   E   0.20261  0.79740  0.41667
E16   E   0.20261  0.79740  0.91667
E17   E   0.28437  0.32345  0.41666
E18   E   0.28437  0.96092  0.75000
E19   E   0.32345  0.00000  0.00000
E20   E   0.32345  0.00000  1.00000
E21   E   0.32345  0.03908  0.25000
E22   E   0.32345  0.28437  0.91667
E23   E   0.32345  0.32345  0.16666
E24   E   0.32345  0.32345  0.16667
E25   E   0.40521  0.20260  0.08333
E26   E   0.40521  0.20260  0.58333
E27   E   0.40521  0.20261  0.08333
E28   E   0.40521  0.20261  0.58333
E29   E   0.41824  0.58176  0.91666
E30   E   0.41824  0.83648  0.25000
E31   E   0.41824  0.58176  0.91667
E32   E   0.41824  0.83648  0.25000
E33   E   0.58176  0.16352  0.75000
E34   E   0.58176  0.16352  0.75000
E35   E   0.58176  0.41824  0.41667
E36   E   0.58176  0.41824  0.41666
E37   E   0.59479  0.79739  0.08333
E38   E   0.59479  0.79739  0.58333
E39   E   0.59479  0.79740  0.08333
E40   E   0.59479  0.79740  0.58333
E41   E   0.67655  0.00000  0.50000
E42   E   0.67655  0.00000  0.50000
E43   E   0.67655  0.67655  0.66666
E44   E   0.67655  0.67655  0.66667
E45   E   0.67655  0.71563  0.41667
E46   E   0.67655  0.96092  0.75000
E47   E   0.71563  0.03908  0.25000
E48   E   0.71563  0.67655  0.91666
E49   E   0.79739  0.20260  0.41667
E50   E   0.79739  0.20260  0.91667
E51   E   0.79739  0.59479  0.25000
E52   E   0.79739  0.59479  0.75000
E53   E   0.79740  0.20261  0.41667
E54   E   0.79740  0.20261  0.91667
E55   E   0.79740  0.59479  0.25000
E56   E   0.79740  0.59479  0.75000
E57   E   0.83648  0.41824  0.08333
E58   E   0.83648  0.41824  0.08334
E59   E   0.96092  0.28437  0.58333
E60   E   0.96092  0.67655  0.58334
loop_
