data_wks_P6/mcc  hall_number: 486, V_con: 6
_audit_creation_date              2025-03-06
_audit_creation_method            'MOFbuilder_1.0'
_symmetry_space_group_name_H-M    'P1'
_symmetry_Int_Tables_number       1
_symmetry_cell_setting            triclinic
loop_
_symmetry_equiv_pos_as_xyz
  x,y,z
_cell_length_a                    27.8744
_cell_length_b                    27.8744
_cell_length_c                    37.1122
_cell_angle_alpha                 90.0
_cell_angle_beta                  90.0
_cell_angle_gamma                 120.0
loop_
_atom_site_label
_atom_site_type_symbol
_atom_site_fract_x
_atom_site_fract_y
_atom_site_fract_z
V1    V   0.10722  0.40014  0.36527
V2    V   0.10722  0.40014  0.63473
V3    V   0.10722  0.70708  0.13473
V4    V   0.10722  0.70708  0.86527
V5    V   0.29292  0.40014  0.13473
V6    V   0.29292  0.40014  0.86527
V7    V   0.29292  0.89278  0.36527
V8    V   0.29292  0.89278  0.63473
V9    V   0.40014  0.10722  0.13473
V10   V   0.40014  0.10722  0.86527
V11   V   0.40014  0.29292  0.36527
V12   V   0.40014  0.29292  0.63473
V13   V   0.59986  0.70708  0.36527
V14   V   0.59986  0.70708  0.63473
V15   V   0.59986  0.89278  0.13473
V16   V   0.59986  0.89278  0.86527
V17   V   0.70708  0.10722  0.36527
V18   V   0.70708  0.10722  0.63473
V19   V   0.70708  0.59986  0.13473
V20   V   0.70708  0.59986  0.86527
V21   V   0.89278  0.29292  0.13473
V22   V   0.89278  0.29292  0.86527
V23   V   0.89278  0.59986  0.36527
V24   V   0.89278  0.59986  0.63473
E1    E   0.00000  0.34653  0.25000
E2    E   0.00000  0.34653  0.75000
E3    E   0.00000  0.50000  0.13473
E4    E   0.00000  0.50000  0.36527
E5    E   0.00000  0.50000  0.63473
E6    E   0.00000  0.50000  0.86527
E7    E   0.00000  0.65347  0.25000
E8    E   0.00000  0.65347  0.75000
E9    E   0.09285  0.34653  0.13473
E10   E   0.09285  0.34653  0.86527
E11   E   0.09285  0.74632  0.36527
E12   E   0.09285  0.74632  0.63473
E13   E   0.10722  0.40014  0.50000
E14   E   0.10722  0.70708  0.00000
E15   E   0.20007  0.40014  0.25000
E16   E   0.20007  0.40014  0.75000
E17   E   0.20007  0.79993  0.25000
E18   E   0.20007  0.79993  0.75000
E19   E   0.25368  0.34653  0.36527
E20   E   0.25368  0.34653  0.63473
E21   E   0.25368  0.90715  0.13473
E22   E   0.25368  0.90715  0.86527
E23   E   0.29292  0.40014  0.00000
E24   E   0.29292  0.89278  0.50000
E25   E   0.34653  0.00000  0.25000
E26   E   0.34653  0.00000  0.75000
E27   E   0.34653  0.09285  0.36527
E28   E   0.34653  0.09285  0.63473
E29   E   0.34653  0.25368  0.13473
E30   E   0.34653  0.25368  0.86527
E31   E   0.34653  0.34653  0.25000
E32   E   0.34653  0.34653  0.75000
E33   E   0.40014  0.10722  0.00000
E34   E   0.40014  0.20007  0.25000
E35   E   0.40014  0.20007  0.75000
E36   E   0.40014  0.29292  0.50000
E37   E   0.50000  0.00000  0.13473
E38   E   0.50000  0.00000  0.36527
E39   E   0.50000  0.00000  0.63473
E40   E   0.50000  0.00000  0.86527
E41   E   0.50000  0.50000  0.13473
E42   E   0.50000  0.50000  0.36527
E43   E   0.50000  0.50000  0.63473
E44   E   0.50000  0.50000  0.86527
E45   E   0.59986  0.70708  0.50000
E46   E   0.59986  0.79993  0.25000
E47   E   0.59986  0.79993  0.75000
E48   E   0.59986  0.89278  0.00000
E49   E   0.65347  0.00000  0.25000
E50   E   0.65347  0.00000  0.75000
E51   E   0.65347  0.65347  0.25000
E52   E   0.65347  0.65347  0.75000
E53   E   0.65347  0.74632  0.13473
E54   E   0.65347  0.74632  0.86527
E55   E   0.65347  0.90715  0.36527
E56   E   0.65347  0.90715  0.63473
E57   E   0.70708  0.10722  0.50000
E58   E   0.70708  0.59986  0.00000
E59   E   0.74632  0.09285  0.13473
E60   E   0.74632  0.09285  0.86527
E61   E   0.74632  0.65347  0.36527
E62   E   0.74632  0.65347  0.63473
E63   E   0.79993  0.20007  0.25000
E64   E   0.79993  0.20007  0.75000
E65   E   0.79993  0.59986  0.25000
E66   E   0.79993  0.59986  0.75000
E67   E   0.89278  0.29292  0.00000
E68   E   0.89278  0.59986  0.50000
E69   E   0.90715  0.25368  0.36527
E70   E   0.90715  0.25368  0.63473
E71   E   0.90715  0.65347  0.13473
E72   E   0.90715  0.65347  0.86527
loop_
