data_wkt_P6122  hall_number: 472, V_con: 7
_audit_creation_date              2025-03-06
_audit_creation_method            'MOFbuilder_1.0'
_symmetry_space_group_name_H-M    'P1'
_symmetry_Int_Tables_number       1
_symmetry_cell_setting            triclinic
loop_
_symmetry_equiv_pos_as_xyz
  x,y,z
_cell_length_a                    18.697
_cell_length_b                    18.697
_cell_length_c                    38.6965
_cell_angle_alpha                 90.0
_cell_angle_beta                  90.0
_cell_angle_gamma                 120.0
loop_
_atom_site_label
_atom_site_type_symbol
_atom_site_fract_x
_atom_site_fract_y
_atom_site_fract_z
V1    V   0.06330  0.43670  0.46254
V2    V   0.06330  0.62660  0.70413
V3    V   0.37340  0.43670  0.03746
V4    V   0.37340  0.93670  0.12921
V5    V   0.43670  0.06330  0.87079
V6    V   0.43670  0.37340  0.29587
V7    V   0.56330  0.62660  0.79587
V8    V   0.56330  0.93670  0.37079
V9    V   0.62660  0.06330  0.62921
V10   V   0.62660  0.56330  0.53746
V11   V   0.93670  0.37340  0.20413
V12   V   0.93670  0.56330  0.96254
E1    E   0.06330  0.53165  0.58333
E2    E   0.06330  0.53165  0.58334
E3    E   0.15505  0.40505  0.12079
E4    E   0.15505  0.50000  0.00000
E5    E   0.15505  0.65505  0.16667
E6    E   0.15505  0.75000  0.04588
E7    E   0.18670  0.37340  0.25000
E8    E   0.18670  0.37340  0.25000
E9    E   0.18670  0.81330  0.91666
E10   E   0.18670  0.81330  0.91667
E11   E   0.25000  0.40505  0.37921
E12   E   0.25000  0.84495  0.78745
E13   E   0.31330  0.62660  0.75000
E14   E   0.31330  0.68670  0.41667
E15   E   0.31330  0.62660  0.75000
E16   E   0.31330  0.68670  0.41666
E17   E   0.34495  0.50000  0.50000
E18   E   0.34495  0.84495  0.66667
E19   E   0.37340  0.18670  0.08333
E20   E   0.37340  0.18670  0.08334
E21   E   0.37340  0.68670  0.08333
E22   E   0.37340  0.68670  0.08334
E23   E   0.40505  0.15505  0.21255
E24   E   0.40505  0.25000  0.95412
E25   E   0.46835  0.53165  0.91667
E26   E   0.46835  0.93670  0.25000
E27   E   0.46835  0.53165  0.91666
E28   E   0.46835  0.93670  0.25000
E29   E   0.50000  0.15505  0.33333
E30   E   0.50000  0.34495  0.83333
E31   E   0.50000  0.65505  0.33333
E32   E   0.50000  0.84495  0.83333
E33   E   0.53165  0.06330  0.75000
E34   E   0.53165  0.06330  0.75000
E35   E   0.53165  0.46835  0.41666
E36   E   0.53165  0.46835  0.41667
E37   E   0.59495  0.75000  0.45412
E38   E   0.59495  0.84495  0.71255
E39   E   0.62660  0.31330  0.58334
E40   E   0.62660  0.31330  0.58333
E41   E   0.62660  0.81330  0.58333
E42   E   0.62660  0.81330  0.58334
E43   E   0.65505  0.15505  0.16667
E44   E   0.65505  0.50000  0.00000
E45   E   0.68670  0.31330  0.91666
E46   E   0.68670  0.37340  0.25000
E47   E   0.68670  0.31330  0.91667
E48   E   0.68670  0.37340  0.25000
E49   E   0.75000  0.15505  0.28745
E50   E   0.75000  0.59495  0.87921
E51   E   0.81330  0.18670  0.41666
E52   E   0.81330  0.18670  0.41667
E53   E   0.81330  0.62660  0.75000
E54   E   0.81330  0.62660  0.75000
E55   E   0.84495  0.25000  0.54588
E56   E   0.84495  0.34495  0.66667
E57   E   0.84495  0.50000  0.50000
E58   E   0.84495  0.59495  0.62079
E59   E   0.93670  0.46835  0.08334
E60   E   0.93670  0.46835  0.08333
loop_
