data_wkw_P61  hall_number: 463, V_con: 8
_audit_creation_date              2025-03-06
_audit_creation_method            'MOFbuilder_1.0'
_symmetry_space_group_name_H-M    'P1'
_symmetry_Int_Tables_number       1
_symmetry_cell_setting            triclinic
loop_
_symmetry_equiv_pos_as_xyz
  x,y,z
_cell_length_a                    25.273500000000002
_cell_length_b                    25.273500000000002
_cell_length_c                    10.0
_cell_angle_alpha                 90.0
_cell_angle_beta                  90.0
_cell_angle_gamma                 120.0
loop_
_atom_site_label
_atom_site_type_symbol
_atom_site_fract_x
_atom_site_fract_y
_atom_site_fract_z
V1    V   0.13260  0.69345  0.50000
V2    V   0.30655  0.43915  0.83333
V3    V   0.43915  0.13260  0.66667
V4    V   0.56085  0.86740  0.16667
V5    V   0.69345  0.56085  0.33333
V6    V   0.86740  0.30655  0.00000
E1    E   0.00000  0.50000  0.25000
E2    E   0.00000  0.50000  0.75000
E3    E   0.08697  0.37285  0.91666
E4    E   0.13260  0.69345  0.00000
E5    E   0.21958  0.56630  0.66666
E6    E   0.28588  0.91303  0.58333
E7    E   0.30655  0.43915  0.33333
E8    E   0.34672  0.78042  0.33333
E9    E   0.37285  0.28588  0.75000
E10   E   0.43370  0.65328  1.00000
E11   E   0.43915  0.13260  0.16667
E12   E   0.50000  0.00000  0.41667
E13   E   0.50000  0.00000  0.91667
E14   E   0.50000  0.50000  0.08333
E15   E   0.50000  0.50000  0.58333
E16   E   0.56085  0.86740  0.66667
E17   E   0.56630  0.34672  0.50000
E18   E   0.62715  0.71412  0.25000
E19   E   0.65328  0.21958  0.83333
E20   E   0.69345  0.56085  0.83333
E21   E   0.71412  0.08697  0.08333
E22   E   0.78042  0.43370  0.16666
E23   E   0.86740  0.30655  0.50000
E24   E   0.91303  0.62715  0.41666
loop_
