data_wla_R32:H  hall_number: 445, V_con: 5
_audit_creation_date              2025-03-06
_audit_creation_method            'MOFbuilder_1.0'
_symmetry_space_group_name_H-M    'P1'
_symmetry_Int_Tables_number       1
_symmetry_cell_setting            triclinic
loop_
_symmetry_equiv_pos_as_xyz
  x,y,z
_cell_length_a                    35.6529
_cell_length_b                    35.6529
_cell_length_c                    19.1841
_cell_angle_alpha                 90.0
_cell_angle_beta                  90.0
_cell_angle_gamma                 120.0
loop_
_atom_site_label
_atom_site_type_symbol
_atom_site_fract_x
_atom_site_fract_y
_atom_site_fract_z
V1    V   0.04578  0.25000  0.17990
V2    V   0.17990  0.04578  0.25000
V3    V   0.25000  0.17990  0.04578
V4    V   0.75000  0.95422  0.82010
V5    V   0.82010  0.75000  0.95422
V6    V   0.95422  0.82010  0.75000
E1    E   0.00000  0.00000  0.15701
E2    E   0.00000  0.00000  0.84299
E3    E   0.00000  0.15701  0.00000
E4    E   0.00000  0.50000  0.15701
E5    E   0.00000  0.84299  0.00000
E6    E   0.00000  0.84299  0.50000
E7    E   0.06706  0.08995  0.25000
E8    E   0.08995  0.25000  0.06706
E9    E   0.12250  0.16667  0.33333
E10   E   0.15701  0.00000  0.00000
E11   E   0.15701  0.00000  0.50000
E12   E   0.16667  0.33333  0.12250
E13   E   0.25000  0.06706  0.08995
E14   E   0.33333  0.12250  0.16667
E15   E   0.50000  0.00000  0.84299
E16   E   0.50000  0.15701  0.00000
E17   E   0.66667  0.83333  0.87750
E18   E   0.75000  0.91005  0.93294
E19   E   0.83333  0.87750  0.66667
E20   E   0.84299  0.00000  0.00000
E21   E   0.84299  0.50000  0.00000
E22   E   0.87750  0.66667  0.83333
E23   E   0.91005  0.93294  0.75000
E24   E   0.93294  0.75000  0.91005
loop_
