data_wln_R-3m:H  hall_number: 166, V_con: 5
_audit_creation_date              2025-03-06
_audit_creation_method            'MOFbuilder_1.0'
_symmetry_space_group_name_H-M    'P1'
_symmetry_Int_Tables_number       1
_symmetry_cell_setting            triclinic
loop_
_symmetry_equiv_pos_as_xyz
  x,y,z
_cell_length_a                    79.2939
_cell_length_b                    79.2939
_cell_length_c                    10.0
_cell_angle_alpha                 90.0
_cell_angle_beta                  90.0
_cell_angle_gamma                 120.0
loop_
_atom_site_label
_atom_site_type_symbol
_atom_site_fract_x
_atom_site_fract_y
_atom_site_fract_z
V1    V   0.13634  0.39879  0.05234
V2    V   0.13634  0.89879  0.44766
V3    V   0.63634  0.10121  0.55234
V4    V   0.63634  0.60121  0.94766
E1    E   0.10090  0.43423  0.16667
E2    E   0.10090  0.93423  0.33333
E3    E   0.10361  0.33333  0.83333
E4    E   0.10361  0.83333  0.66667
E5    E   0.13634  0.39879  0.55234
E6    E   0.13634  0.89879  0.94766
E7    E   0.19939  0.39879  0.05234
E8    E   0.19939  0.89879  0.44766
E9    E   0.60090  0.06577  0.66667
E10   E   0.60090  0.56577  0.83333
E11   E   0.60361  0.16667  0.33333
E12   E   0.60361  0.66667  0.16667
E13   E   0.63634  0.10121  0.05234
E14   E   0.63634  0.60121  0.44766
E15   E   0.69939  0.10121  0.55234
E16   E   0.69939  0.60121  0.94766
loop_
