data_wmd_P6122  hall_number: 472, V_con: 6
_audit_creation_date              2025-03-06
_audit_creation_method            'MOFbuilder_1.0'
_symmetry_space_group_name_H-M    'P1'
_symmetry_Int_Tables_number       1
_symmetry_cell_setting            triclinic
loop_
_symmetry_equiv_pos_as_xyz
  x,y,z
_cell_length_a                    18.8026
_cell_length_b                    18.8026
_cell_length_c                    38.2835
_cell_angle_alpha                 90.0
_cell_angle_beta                  90.0
_cell_angle_gamma                 120.0
loop_
_atom_site_label
_atom_site_type_symbol
_atom_site_fract_x
_atom_site_fract_y
_atom_site_fract_z
V1    V   0.06274  0.43726  0.96118
V2    V   0.06274  0.62548  0.20548
V3    V   0.37452  0.43726  0.53882
V4    V   0.37452  0.93726  0.62785
V5    V   0.43726  0.06274  0.37215
V6    V   0.43726  0.37452  0.79452
V7    V   0.56274  0.62548  0.29452
V8    V   0.56274  0.93726  0.87215
V9    V   0.62548  0.06274  0.12785
V10   V   0.62548  0.56274  0.03882
V11   V   0.93726  0.37452  0.70548
V12   V   0.93726  0.56274  0.46118
E1    E   0.00000  0.40589  0.83333
E2    E   0.00000  0.59411  0.33333
E3    E   0.00000  0.59411  0.33333
E4    E   0.06274  0.53137  0.08333
E5    E   0.06274  0.53137  0.08333
E6    E   0.15589  0.40589  0.62215
E7    E   0.15589  0.75000  0.54451
E8    E   0.18726  0.37452  0.75000
E9    E   0.18726  0.37452  0.75000
E10   E   0.18726  0.81274  0.41666
E11   E   0.18726  0.81274  0.41667
E12   E   0.25000  0.40589  0.87785
E13   E   0.25000  0.84411  0.28882
E14   E   0.31274  0.62548  0.25000
E15   E   0.31274  0.62548  0.25000
E16   E   0.31274  0.68726  0.91666
E17   E   0.31274  0.68726  0.91667
E18   E   0.37452  0.68726  0.58333
E19   E   0.37452  0.68726  0.58334
E20   E   0.37452  0.18726  0.58333
E21   E   0.37452  0.18726  0.58334
E22   E   0.40589  0.00000  0.50000
E23   E   0.40589  0.15589  0.71118
E24   E   0.40589  0.25000  0.45549
E25   E   0.40589  0.40589  0.66667
E26   E   0.46863  0.53137  0.41667
E27   E   0.46863  0.93726  0.75000
E28   E   0.53137  0.06274  0.25000
E29   E   0.53137  0.46863  0.91667
E30   E   0.59411  0.00000  0.00000
E31   E   0.59411  0.59411  0.16667
E32   E   0.59411  0.59411  0.16667
E33   E   0.59411  0.75000  0.95549
E34   E   0.59411  0.84411  0.21118
E35   E   0.62548  0.31274  0.08333
E36   E   0.62548  0.31274  0.08334
E37   E   0.62548  0.81274  0.08333
E38   E   0.62548  0.81274  0.08334
E39   E   0.68726  0.31274  0.41666
E40   E   0.68726  0.31274  0.41667
E41   E   0.68726  0.37452  0.75000
E42   E   0.68726  0.37452  0.75000
E43   E   0.75000  0.15589  0.78882
E44   E   0.75000  0.59411  0.37785
E45   E   0.81274  0.18726  0.91666
E46   E   0.81274  0.18726  0.91667
E47   E   0.81274  0.62548  0.25000
E48   E   0.81274  0.62548  0.25000
E49   E   0.84411  0.25000  0.04451
E50   E   0.84411  0.59411  0.12215
E51   E   0.93726  0.46863  0.58333
E52   E   0.93726  0.46863  0.58333
loop_
