data_wmk_P-31c  hall_number: 455, V_con: 6
_audit_creation_date              2025-03-06
_audit_creation_method            'MOFbuilder_1.0'
_symmetry_space_group_name_H-M    'P1'
_symmetry_Int_Tables_number       1
_symmetry_cell_setting            triclinic
loop_
_symmetry_equiv_pos_as_xyz
  x,y,z
_cell_length_a                    24.8019
_cell_length_b                    24.8019
_cell_length_c                    26.441
_cell_angle_alpha                 90.0
_cell_angle_beta                  90.0
_cell_angle_gamma                 120.0
loop_
_atom_site_label
_atom_site_type_symbol
_atom_site_fract_x
_atom_site_fract_y
_atom_site_fract_z
V1    V   0.12611  0.41479  0.92305
V2    V   0.12611  0.71132  0.57695
V3    V   0.28868  0.41479  0.57695
V4    V   0.28868  0.87389  0.92305
V5    V   0.41479  0.12611  0.42305
V6    V   0.41479  0.28868  0.07695
V7    V   0.58521  0.71132  0.92305
V8    V   0.58521  0.87389  0.57695
V9    V   0.71132  0.12611  0.07695
V10   V   0.71132  0.58521  0.42305
V11   V   0.87389  0.28868  0.42305
V12   V   0.87389  0.58521  0.07695
E1    E   0.00000  0.50000  0.00000
E2    E   0.00000  0.50000  0.50000
E3    E   0.08128  0.35173  0.50000
E4    E   0.08128  0.72955  0.00000
E5    E   0.20739  0.41479  0.75000
E6    E   0.20739  0.56306  0.57695
E7    E   0.20739  0.64433  0.92305
E8    E   0.20739  0.79260  0.75000
E9    E   0.20740  0.41479  0.75000
E10   E   0.20740  0.79261  0.75000
E11   E   0.27045  0.35173  0.00000
E12   E   0.27045  0.91872  0.50000
E13   E   0.35173  0.08128  0.00000
E14   E   0.35173  0.27045  0.50000
E15   E   0.35567  0.56306  0.92305
E16   E   0.35567  0.79261  0.57695
E17   E   0.41479  0.20739  0.25000
E18   E   0.41479  0.20740  0.25000
E19   E   0.43694  0.64433  0.57695
E20   E   0.43694  0.79261  0.92305
E21   E   0.50000  0.00000  0.00000
E22   E   0.50000  0.00000  0.50000
E23   E   0.50000  0.50000  0.00000
E24   E   0.50000  0.50000  0.50000
E25   E   0.56306  0.20739  0.07695
E26   E   0.56306  0.35567  0.42305
E27   E   0.58521  0.79260  0.75000
E28   E   0.58521  0.79261  0.75000
E29   E   0.64433  0.20739  0.42305
E30   E   0.64433  0.43694  0.07695
E31   E   0.64827  0.72955  0.50000
E32   E   0.64827  0.91872  0.00000
E33   E   0.72955  0.08128  0.50000
E34   E   0.72955  0.64827  0.00000
E35   E   0.79260  0.20739  0.25000
E36   E   0.79260  0.58521  0.25000
E37   E   0.79261  0.20740  0.25000
E38   E   0.79261  0.35567  0.07695
E39   E   0.79261  0.43694  0.42305
E40   E   0.79261  0.58521  0.25000
E41   E   0.91872  0.27045  0.00000
E42   E   0.91872  0.64827  0.50000
loop_
