data_wmn_P-3c1  hall_number: 457, V_con: 6
_audit_creation_date              2025-03-06
_audit_creation_method            'MOFbuilder_1.0'
_symmetry_space_group_name_H-M    'P1'
_symmetry_Int_Tables_number       1
_symmetry_cell_setting            triclinic
loop_
_symmetry_equiv_pos_as_xyz
  x,y,z
_cell_length_a                    27.7754
_cell_length_b                    27.7754
_cell_length_c                    17.242900000000002
_cell_angle_alpha                 90.0
_cell_angle_beta                  90.0
_cell_angle_gamma                 120.0
loop_
_atom_site_label
_atom_site_type_symbol
_atom_site_fract_x
_atom_site_fract_y
_atom_site_fract_z
V1    V   0.10986  0.40213  0.00383
V2    V   0.10986  0.70773  0.50383
V3    V   0.29227  0.40213  0.50383
V4    V   0.29227  0.89014  0.00383
V5    V   0.40213  0.10986  0.49617
V6    V   0.40213  0.29227  0.99617
V7    V   0.59787  0.70773  0.00383
V8    V   0.59787  0.89014  0.50383
V9    V   0.70773  0.10986  0.99617
V10   V   0.70773  0.59787  0.49617
V11   V   0.89014  0.29227  0.49617
V12   V   0.89014  0.59787  0.99617
E1    E   0.00000  0.34720  0.25000
E2    E   0.00000  0.50000  0.00000
E3    E   0.00000  0.50000  0.50000
E4    E   0.00000  0.65280  0.75000
E5    E   0.09121  0.34720  0.50000
E6    E   0.09121  0.74401  0.00000
E7    E   0.20106  0.40213  0.75383
E8    E   0.20106  0.79893  0.25383
E9    E   0.20107  0.40213  0.25383
E10   E   0.20107  0.79894  0.75383
E11   E   0.25599  0.34720  0.00000
E12   E   0.25599  0.90879  0.50000
E13   E   0.34720  0.00000  0.25000
E14   E   0.34720  0.09121  0.00000
E15   E   0.34720  0.25599  0.50000
E16   E   0.34720  0.34720  0.75000
E17   E   0.40213  0.20106  0.74617
E18   E   0.40213  0.20107  0.24617
E19   E   0.50000  0.00000  0.00000
E20   E   0.50000  0.00000  0.50000
E21   E   0.50000  0.50000  0.00000
E22   E   0.50000  0.50000  0.50000
E23   E   0.59787  0.79893  0.75383
E24   E   0.59787  0.79894  0.25383
E25   E   0.65280  0.00000  0.75000
E26   E   0.65280  0.65280  0.25000
E27   E   0.65280  0.74401  0.50000
E28   E   0.65280  0.90879  0.00000
E29   E   0.74401  0.09121  0.50000
E30   E   0.74401  0.65280  0.00000
E31   E   0.79893  0.20106  0.24617
E32   E   0.79893  0.59787  0.74617
E33   E   0.79894  0.20107  0.74617
E34   E   0.79894  0.59787  0.24617
E35   E   0.90879  0.25599  0.00000
E36   E   0.90879  0.65280  0.50000
loop_
