data_wni_P3221  hall_number: 443, V_con: 7
_audit_creation_date              2025-03-06
_audit_creation_method            'MOFbuilder_1.0'
_symmetry_space_group_name_H-M    'P1'
_symmetry_Int_Tables_number       1
_symmetry_cell_setting            triclinic
loop_
_symmetry_equiv_pos_as_xyz
  x,y,z
_cell_length_a                    18.0255
_cell_length_b                    18.0255
_cell_length_c                    18.9737
_cell_angle_alpha                 90.0
_cell_angle_beta                  90.0
_cell_angle_gamma                 120.0
loop_
_atom_site_label
_atom_site_type_symbol
_atom_site_fract_x
_atom_site_fract_y
_atom_site_fract_z
V1    V   0.10129  0.40515  0.08333
V2    V   0.30386  0.89871  0.41666
V3    V   0.40515  0.10129  0.91667
V4    V   0.59485  0.69614  0.75000
V5    V   0.69614  0.59485  0.25000
V6    V   0.89871  0.30386  0.58334
E1    E   0.00000  0.35450  0.33333
E2    E   0.00000  0.35450  0.33334
E3    E   0.00000  0.35450  0.83333
E4    E   0.00000  0.35450  0.83334
E5    E   0.00000  0.74678  0.33333
E6    E   0.10128  0.60128  0.50000
E7    E   0.20258  0.65193  0.25000
E8    E   0.25322  0.25322  0.00000
E9    E   0.34807  0.55065  0.91667
E10   E   0.35450  0.00000  0.16666
E11   E   0.35450  0.00000  0.16667
E12   E   0.35450  0.00000  0.66666
E13   E   0.35450  0.00000  0.66667
E14   E   0.39872  0.50000  0.16667
E15   E   0.44935  0.79742  0.58334
E16   E   0.50000  0.39872  0.83333
E17   E   0.50000  0.89872  0.83334
E18   E   0.55065  0.34807  0.08333
E19   E   0.60128  0.10128  0.50000
E20   E   0.64550  0.64550  0.00000
E21   E   0.64550  0.64550  0.50000
E22   E   0.64550  0.64550  0.50000
E23   E   0.64550  0.64550  1.00000
E24   E   0.65193  0.20258  0.75000
E25   E   0.74678  0.00000  0.66667
E26   E   0.79742  0.44935  0.41666
E27   E   0.89872  0.50000  0.16666
loop_
