data_wnk_P3221  hall_number: 443, V_con: 7
_audit_creation_date              2025-03-06
_audit_creation_method            'MOFbuilder_1.0'
_symmetry_space_group_name_H-M    'P1'
_symmetry_Int_Tables_number       1
_symmetry_cell_setting            triclinic
loop_
_symmetry_equiv_pos_as_xyz
  x,y,z
_cell_length_a                    16.0407
_cell_length_b                    16.0407
_cell_length_c                    28.584999999999997
_cell_angle_alpha                 90.0
_cell_angle_beta                  90.0
_cell_angle_gamma                 120.0
loop_
_atom_site_label
_atom_site_type_symbol
_atom_site_fract_x
_atom_site_fract_y
_atom_site_fract_z
V1    V   0.22410  0.55743  0.56599
V2    V   0.33333  0.77590  0.89932
V3    V   0.44257  0.66667  0.23266
V4    V   0.55743  0.22410  0.43401
V5    V   0.66667  0.44257  0.76734
V6    V   0.77590  0.33333  0.10068
E1    E   0.00000  0.60923  0.83333
E2    E   0.05461  0.55461  1.00000
E3    E   0.10923  0.50000  0.16667
E4    E   0.27872  0.66667  0.73265
E5    E   0.33333  0.61205  0.39932
E6    E   0.38795  0.72128  0.06598
E7    E   0.39077  0.39077  0.50000
E8    E   0.39077  0.89077  0.50000
E9    E   0.44539  0.50000  0.66666
E10   E   0.50000  0.10923  0.83333
E11   E   0.50000  0.44539  0.33334
E12   E   0.50000  0.60923  0.83333
E13   E   0.50000  0.94539  0.33333
E14   E   0.55461  0.05461  0.00000
E15   E   0.60923  0.00000  0.16667
E16   E   0.60923  0.00000  0.16667
E17   E   0.60923  0.50000  0.16667
E18   E   0.61205  0.33333  0.60068
E19   E   0.66667  0.27872  0.26735
E20   E   0.72128  0.38795  0.93402
E21   E   0.89077  0.39077  0.50000
E22   E   0.94539  0.50000  0.66667
loop_
