data_wnl_P6222  hall_number: 474, V_con: 7
_audit_creation_date              2025-03-06
_audit_creation_method            'MOFbuilder_1.0'
_symmetry_space_group_name_H-M    'P1'
_symmetry_Int_Tables_number       1
_symmetry_cell_setting            triclinic
loop_
_symmetry_equiv_pos_as_xyz
  x,y,z
_cell_length_a                    43.380599999999994
_cell_length_b                    43.380599999999994
_cell_length_c                    10.0
_cell_angle_alpha                 90.0
_cell_angle_beta                  90.0
_cell_angle_gamma                 120.0
loop_
_atom_site_label
_atom_site_type_symbol
_atom_site_fract_x
_atom_site_fract_y
_atom_site_fract_z
V1    V   0.11526  0.45781  0.41667
V2    V   0.11526  0.65745  0.91667
V3    V   0.34255  0.45781  0.58333
V4    V   0.34255  0.88474  0.75000
V5    V   0.45781  0.11526  0.25000
V6    V   0.45781  0.34255  0.08333
V7    V   0.54219  0.65745  0.08333
V8    V   0.54219  0.88474  0.25000
V9    V   0.65745  0.11526  0.75000
V10   V   0.65745  0.54219  0.58333
V11   V   0.88474  0.34255  0.91667
V12   V   0.88474  0.54219  0.41667
E1    E   0.00000  0.40018  0.16667
E2    E   0.00000  0.40018  0.16667
E3    E   0.00000  0.40018  0.66667
E4    E   0.00000  0.59982  0.16667
E5    E   0.00000  0.59982  0.16667
E6    E   0.00000  0.59982  0.66667
E7    E   0.11526  0.45781  0.91667
E8    E   0.11526  0.55763  0.16667
E9    E   0.11526  0.55763  0.66667
E10   E   0.11526  0.55763  0.16667
E11   E   0.11526  0.55763  0.66667
E12   E   0.11526  0.65745  0.41667
E13   E   0.22890  0.45781  0.50000
E14   E   0.22890  0.77109  0.83333
E15   E   0.22891  0.45781  0.50000
E16   E   0.22891  0.77110  0.83334
E17   E   0.34255  0.45781  0.08333
E18   E   0.34255  0.88474  0.25000
E19   E   0.40018  0.00000  0.00000
E20   E   0.40018  0.00000  0.50000
E21   E   0.40018  0.40018  0.33333
E22   E   0.40018  0.40018  0.83333
E23   E   0.44237  0.55763  0.33333
E24   E   0.44237  0.55763  0.83333
E25   E   0.44237  0.88474  0.00000
E26   E   0.44237  0.88474  0.50000
E27   E   0.44237  0.55763  0.33333
E28   E   0.44237  0.55763  0.83333
E29   E   0.44237  0.88474  0.00000
E30   E   0.44237  0.88474  0.50000
E31   E   0.45781  0.11526  0.75000
E32   E   0.45781  0.22890  0.16666
E33   E   0.45781  0.22891  0.16667
E34   E   0.45781  0.34255  0.58333
E35   E   0.54219  0.65745  0.58333
E36   E   0.54219  0.77109  0.16667
E37   E   0.54219  0.77110  0.16666
E38   E   0.54219  0.88474  0.75000
E39   E   0.55763  0.11526  0.00000
E40   E   0.55763  0.11526  0.50000
E41   E   0.55763  0.44237  0.33333
E42   E   0.55763  0.44237  0.83333
E43   E   0.55763  0.11526  0.00000
E44   E   0.55763  0.11526  0.50000
E45   E   0.55763  0.44237  0.33333
E46   E   0.55763  0.44237  0.83333
E47   E   0.59982  0.00000  0.00000
E48   E   0.59982  0.00000  0.50000
E49   E   0.59982  0.59982  0.33333
E50   E   0.59982  0.59982  0.83333
E51   E   0.65745  0.11526  0.25000
E52   E   0.65745  0.54219  0.08333
E53   E   0.77109  0.22890  0.83334
E54   E   0.77109  0.54219  0.50000
E55   E   0.77110  0.22891  0.83333
E56   E   0.77110  0.54219  0.50000
E57   E   0.88474  0.34255  0.41667
E58   E   0.88474  0.44237  0.16667
E59   E   0.88474  0.44237  0.66667
E60   E   0.88474  0.44237  0.16667
E61   E   0.88474  0.44237  0.66667
E62   E   0.88474  0.54219  0.91667
loop_
