data_wnr_P3221  hall_number: 443, V_con: 7
_audit_creation_date              2025-03-06
_audit_creation_method            'MOFbuilder_1.0'
_symmetry_space_group_name_H-M    'P1'
_symmetry_Int_Tables_number       1
_symmetry_cell_setting            triclinic
loop_
_symmetry_equiv_pos_as_xyz
  x,y,z
_cell_length_a                    25.4482
_cell_length_b                    25.4482
_cell_length_c                    9.9999
_cell_angle_alpha                 90.0
_cell_angle_beta                  90.0
_cell_angle_gamma                 120.0
loop_
_atom_site_label
_atom_site_type_symbol
_atom_site_fract_x
_atom_site_fract_y
_atom_site_fract_z
V1    V   0.19648  0.42018  0.08333
V2    V   0.22370  0.80352  0.41666
V3    V   0.42018  0.19648  0.91667
V4    V   0.57982  0.77630  0.75000
V5    V   0.77630  0.57982  0.25000
V6    V   0.80352  0.22370  0.58334
E1    E   0.00000  0.32194  0.33333
E2    E   0.00000  0.32194  0.33334
E3    E   0.00000  0.32194  0.83333
E4    E   0.00000  0.32194  0.83334
E5    E   0.00000  0.69167  0.33333
E6    E   0.19648  0.42018  0.58333
E7    E   0.21009  0.61185  0.24999
E8    E   0.22370  0.80352  0.91666
E9    E   0.30833  0.30833  0.00000
E10   E   0.32194  0.00000  0.16666
E11   E   0.32194  0.00000  0.16667
E12   E   0.32194  0.00000  0.66666
E13   E   0.32194  0.00000  0.66667
E14   E   0.38815  0.59824  0.91666
E15   E   0.40176  0.78991  0.58332
E16   E   0.42018  0.19648  0.41667
E17   E   0.57982  0.77630  0.25000
E18   E   0.59824  0.38815  0.08334
E19   E   0.61185  0.21009  0.75001
E20   E   0.67806  0.67806  0.00000
E21   E   0.67806  0.67806  0.50000
E22   E   0.67806  0.67806  0.50000
E23   E   0.67806  0.67806  1.00000
E24   E   0.69167  0.00000  0.66667
E25   E   0.77630  0.57982  0.75000
E26   E   0.78991  0.40176  0.41668
E27   E   0.80352  0.22370  0.08334
loop_
