data_wns_P-3c1  hall_number: 457, V_con: 7
_audit_creation_date              2025-03-06
_audit_creation_method            'MOFbuilder_1.0'
_symmetry_space_group_name_H-M    'P1'
_symmetry_Int_Tables_number       1
_symmetry_cell_setting            triclinic
loop_
_symmetry_equiv_pos_as_xyz
  x,y,z
_cell_length_a                    26.112000000000002
_cell_length_b                    26.112000000000002
_cell_length_c                    19.5516
_cell_angle_alpha                 90.0
_cell_angle_beta                  90.0
_cell_angle_gamma                 120.0
loop_
_atom_site_label
_atom_site_type_symbol
_atom_site_fract_x
_atom_site_fract_y
_atom_site_fract_z
V1    V   0.16750  0.41564  0.91694
V2    V   0.16750  0.75186  0.41694
V3    V   0.24814  0.41564  0.41694
V4    V   0.24814  0.83250  0.91694
V5    V   0.41564  0.16750  0.58306
V6    V   0.41564  0.24814  0.08306
V7    V   0.58436  0.75186  0.91694
V8    V   0.58436  0.83250  0.41694
V9    V   0.75186  0.16750  0.08306
V10   V   0.75186  0.58436  0.58306
V11   V   0.83250  0.24814  0.58306
V12   V   0.83250  0.58436  0.08306
E1    E   0.00000  0.33189  0.75000
E2    E   0.00000  0.66811  0.25000
E3    E   0.04032  0.33189  0.50000
E4    E   0.04032  0.70843  0.00000
E5    E   0.20782  0.41564  0.16694
E6    E   0.20782  0.41564  0.66694
E7    E   0.20782  0.58375  0.41694
E8    E   0.20782  0.62407  0.91694
E9    E   0.20782  0.79218  0.16694
E10   E   0.20782  0.79218  0.66694
E11   E   0.29157  0.33189  0.00000
E12   E   0.29157  0.95968  0.50000
E13   E   0.33189  0.00000  0.75000
E14   E   0.33189  0.04032  0.00000
E15   E   0.33189  0.29157  0.50000
E16   E   0.33189  0.33189  0.25000
E17   E   0.37593  0.58375  0.91694
E18   E   0.37593  0.79218  0.41694
E19   E   0.41564  0.20782  0.33306
E20   E   0.41564  0.20782  0.83306
E21   E   0.41625  0.62407  0.41694
E22   E   0.41625  0.79218  0.91694
E23   E   0.58375  0.20782  0.08306
E24   E   0.58375  0.37593  0.58306
E25   E   0.58436  0.79218  0.16694
E26   E   0.58436  0.79218  0.66694
E27   E   0.62407  0.20782  0.58306
E28   E   0.62407  0.41625  0.08306
E29   E   0.66811  0.00000  0.25000
E30   E   0.66811  0.66811  0.75000
E31   E   0.66811  0.70843  0.50000
E32   E   0.66811  0.95968  0.00000
E33   E   0.70843  0.04032  0.50000
E34   E   0.70843  0.66811  0.00000
E35   E   0.79218  0.20782  0.33306
E36   E   0.79218  0.20782  0.83306
E37   E   0.79218  0.37593  0.08306
E38   E   0.79218  0.41625  0.58306
E39   E   0.79218  0.58436  0.33306
E40   E   0.79218  0.58436  0.83306
E41   E   0.95968  0.29157  0.00000
E42   E   0.95968  0.66811  0.50000
loop_
