data_wut_I-4c2  hall_number: 397, V_con: 4, EC_con: 4
_audit_creation_date              2025-03-06
_audit_creation_method            'MOFbuilder_1.0'
_symmetry_space_group_name_H-M    'P1'
_symmetry_Int_Tables_number       1
_symmetry_cell_setting            triclinic
loop_
_symmetry_equiv_pos_as_xyz
  x,y,z
_cell_length_a                    28.483999999999998
_cell_length_b                    28.483999999999998
_cell_length_c                    29.5908
_cell_angle_alpha                 90.0
_cell_angle_beta                  90.0
_cell_angle_gamma                 90.0
loop_
_atom_site_label
_atom_site_type_symbol
_atom_site_fract_x
_atom_site_fract_y
_atom_site_fract_z
V1    V   0.03515  0.31910  0.13678
V2    V   0.03515  0.68090  0.63678
V3    V   0.18090  0.46485  0.86322
V4    V   0.18090  0.53515  0.36322
V5    V   0.31910  0.03515  0.36322
V6    V   0.31910  0.96485  0.86322
V7    V   0.46485  0.18090  0.63678
V8    V   0.46485  0.81910  0.13678
V9    V   0.53515  0.18090  0.13678
V10   V   0.53515  0.81910  0.63678
V11   V   0.68090  0.03515  0.86322
V12   V   0.68090  0.96485  0.36322
V13   V   0.81910  0.46485  0.36322
V14   V   0.81910  0.53515  0.86322
V15   V   0.96485  0.31910  0.63678
V16   V   0.96485  0.68090  0.13678
EC1    EC   0.00000  0.00000  0.00000
EC2    EC   0.00000  0.00000  0.50000
EC3    EC   0.50000  0.50000  0.00000
EC4    EC   0.50000  0.50000  0.50000
E1    E   0.01758  0.15955  0.06839
E2    E   0.01758  0.84045  0.56839
E3    E   0.07287  0.39197  0.75000
E4    E   0.07287  0.60803  0.25000
E5    E   0.10803  0.39197  0.00000
E6    E   0.10803  0.42713  0.25000
E7    E   0.10803  0.57287  0.75000
E8    E   0.10803  0.60803  0.50000
E9    E   0.10803  0.39197  0.00000
E10   E   0.10803  0.60803  0.50000
E11   E   0.15955  0.01758  0.43161
E12   E   0.15955  0.98242  0.93161
E13   E   0.34045  0.48242  0.93161
E14   E   0.34045  0.51758  0.43161
E15   E   0.39197  0.07287  0.75000
E16   E   0.39197  0.10803  0.50000
E17   E   0.39197  0.10803  0.50000
E18   E   0.39197  0.89197  0.00000
E19   E   0.39197  0.89197  0.00000
E20   E   0.39197  0.92713  0.25000
E21   E   0.42713  0.10803  0.25000
E22   E   0.42713  0.89197  0.75000
E23   E   0.48242  0.34045  0.56839
E24   E   0.48242  0.65955  0.06839
E25   E   0.51758  0.34045  0.06839
E26   E   0.51758  0.65955  0.56839
E27   E   0.57287  0.10803  0.75000
E28   E   0.57287  0.89197  0.25000
E29   E   0.60803  0.07287  0.25000
E30   E   0.60803  0.10803  0.00000
E31   E   0.60803  0.89197  0.50000
E32   E   0.60803  0.92713  0.75000
E33   E   0.60803  0.10803  0.00000
E34   E   0.60803  0.89197  0.50000
E35   E   0.65955  0.48242  0.43161
E36   E   0.65955  0.51758  0.93161
E37   E   0.84045  0.01758  0.93161
E38   E   0.84045  0.98242  0.43161
E39   E   0.89197  0.39197  0.50000
E40   E   0.89197  0.60803  0.00000
E41   E   0.89197  0.39197  0.50000
E42   E   0.89197  0.42713  0.75000
E43   E   0.89197  0.57287  0.25000
E44   E   0.89197  0.60803  0.00000
E45   E   0.92713  0.39197  0.25000
E46   E   0.92713  0.60803  0.75000
E47   E   0.98242  0.15955  0.56839
E48   E   0.98242  0.84045  0.06839
loop_
