data_xaa_Fm-3m  hall_number: 523, V_con: 3, EC_con: 3
_audit_creation_date              2025-03-06
_audit_creation_method            'MOFbuilder_1.0'
_symmetry_space_group_name_H-M    'P1'
_symmetry_Int_Tables_number       1
_symmetry_cell_setting            triclinic
loop_
_symmetry_equiv_pos_as_xyz
  x,y,z
_cell_length_a                    63.131899999999995
_cell_length_b                    63.131899999999995
_cell_length_c                    63.131899999999995
_cell_angle_alpha                 90.0
_cell_angle_beta                  90.0
_cell_angle_gamma                 90.0
loop_
_atom_site_label
_atom_site_type_symbol
_atom_site_fract_x
_atom_site_fract_y
_atom_site_fract_z
V1    V   0.12932  0.12932  0.37068
V2    V   0.12932  0.12932  0.62932
V3    V   0.12932  0.37068  0.12932
V4    V   0.12932  0.37068  0.87068
V5    V   0.12932  0.62932  0.12932
V6    V   0.12932  0.62932  0.87068
V7    V   0.12932  0.87068  0.37068
V8    V   0.12932  0.87068  0.62932
V9    V   0.37068  0.12932  0.12932
V10   V   0.37068  0.12932  0.87068
V11   V   0.37068  0.37068  0.37068
V12   V   0.37068  0.37068  0.62932
V13   V   0.37068  0.62932  0.37068
V14   V   0.37068  0.62932  0.62932
V15   V   0.37068  0.87068  0.12932
V16   V   0.37068  0.87068  0.87068
V17   V   0.62932  0.12932  0.12932
V18   V   0.62932  0.12932  0.87068
V19   V   0.62932  0.37068  0.37068
V20   V   0.62932  0.37068  0.62932
V21   V   0.62932  0.62932  0.37068
V22   V   0.62932  0.62932  0.62932
V23   V   0.62932  0.87068  0.12932
V24   V   0.62932  0.87068  0.87068
V25   V   0.87068  0.12932  0.37068
V26   V   0.87068  0.12932  0.62932
V27   V   0.87068  0.37068  0.12932
V28   V   0.87068  0.37068  0.87068
V29   V   0.87068  0.62932  0.12932
V30   V   0.87068  0.62932  0.87068
V31   V   0.87068  0.87068  0.37068
V32   V   0.87068  0.87068  0.62932
EC1    EC   0.00000  0.19400  0.30600
EC2    EC   0.00000  0.19400  0.69400
EC3    EC   0.00000  0.30600  0.19400
EC4    EC   0.00000  0.30600  0.80600
EC5    EC   0.00000  0.69400  0.19400
EC6    EC   0.00000  0.69400  0.80600
EC7    EC   0.00000  0.80600  0.30600
EC8    EC   0.00000  0.80600  0.69400
EC9    EC   0.19400  0.00000  0.30600
EC10   EC   0.19400  0.00000  0.69400
EC11   EC   0.19400  0.19400  0.50000
EC12   EC   0.19400  0.30600  0.00000
EC13   EC   0.19400  0.50000  0.19400
EC14   EC   0.19400  0.50000  0.80600
EC15   EC   0.19400  0.69400  0.00000
EC16   EC   0.19400  0.80600  0.50000
EC17   EC   0.30600  0.00000  0.19400
EC18   EC   0.30600  0.00000  0.80600
EC19   EC   0.30600  0.19400  0.00000
EC20   EC   0.30600  0.30600  0.50000
EC21   EC   0.30600  0.50000  0.30600
EC22   EC   0.30600  0.50000  0.69400
EC23   EC   0.30600  0.69400  0.50000
EC24   EC   0.30600  0.80600  0.00000
EC25   EC   0.50000  0.19400  0.19400
EC26   EC   0.50000  0.19400  0.80600
EC27   EC   0.50000  0.30600  0.30600
EC28   EC   0.50000  0.30600  0.69400
EC29   EC   0.50000  0.69400  0.30600
EC30   EC   0.50000  0.69400  0.69400
EC31   EC   0.50000  0.80600  0.19400
EC32   EC   0.50000  0.80600  0.80600
EC33   EC   0.69400  0.00000  0.19400
EC34   EC   0.69400  0.00000  0.80600
EC35   EC   0.69400  0.19400  0.00000
EC36   EC   0.69400  0.30600  0.50000
EC37   EC   0.69400  0.50000  0.30600
EC38   EC   0.69400  0.50000  0.69400
EC39   EC   0.69400  0.69400  0.50000
EC40   EC   0.69400  0.80600  0.00000
EC41   EC   0.80600  0.00000  0.30600
EC42   EC   0.80600  0.00000  0.69400
EC43   EC   0.80600  0.19400  0.50000
EC44   EC   0.80600  0.30600  0.00000
EC45   EC   0.80600  0.50000  0.19400
EC46   EC   0.80600  0.50000  0.80600
EC47   EC   0.80600  0.69400  0.00000
EC48   EC   0.80600  0.80600  0.50000
E1    E   0.00000  0.25000  0.25000
E2    E   0.00000  0.25000  0.75000
E3    E   0.00000  0.75000  0.25000
E4    E   0.00000  0.75000  0.75000
E5    E   0.06466  0.16166  0.33834
E6    E   0.06466  0.16166  0.66166
E7    E   0.06466  0.16166  0.33834
E8    E   0.06466  0.16166  0.66166
E9    E   0.06466  0.33834  0.16166
E10   E   0.06466  0.33834  0.16166
E11   E   0.06466  0.33834  0.83834
E12   E   0.06466  0.66166  0.16166
E13   E   0.06466  0.66166  0.16166
E14   E   0.06466  0.66166  0.83834
E15   E   0.06466  0.83834  0.33834
E16   E   0.06466  0.83834  0.66166
E17   E   0.16166  0.06466  0.33834
E18   E   0.16166  0.06466  0.66166
E19   E   0.16166  0.16166  0.43534
E20   E   0.16166  0.16166  0.56466
E21   E   0.16166  0.33834  0.06466
E22   E   0.16166  0.33834  0.93534
E23   E   0.16166  0.43534  0.16166
E24   E   0.16166  0.43534  0.83834
E25   E   0.16166  0.56466  0.16166
E26   E   0.16166  0.56466  0.83834
E27   E   0.16166  0.66166  0.06466
E28   E   0.16166  0.66166  0.93534
E29   E   0.16166  0.83834  0.43534
E30   E   0.16166  0.83834  0.56466
E31   E   0.16166  0.93534  0.33834
E32   E   0.16166  0.93534  0.66166
E33   E   0.16166  0.06466  0.33834
E34   E   0.16166  0.06466  0.66166
E35   E   0.16166  0.16166  0.43534
E36   E   0.16166  0.16166  0.56466
E37   E   0.16166  0.33834  0.06466
E38   E   0.16166  0.33834  0.93534
E39   E   0.16166  0.43534  0.16166
E40   E   0.16166  0.43534  0.83834
E41   E   0.16166  0.56466  0.16166
E42   E   0.16166  0.56466  0.83834
E43   E   0.16166  0.66166  0.06466
E44   E   0.16166  0.66166  0.93534
E45   E   0.16166  0.83834  0.43534
E46   E   0.16166  0.83834  0.56466
E47   E   0.16166  0.93534  0.33834
E48   E   0.16166  0.93534  0.66166
E49   E   0.25000  0.00000  0.25000
E50   E   0.25000  0.00000  0.75000
E51   E   0.25000  0.25000  0.00000
E52   E   0.25000  0.25000  0.50000
E53   E   0.25000  0.50000  0.25000
E54   E   0.25000  0.50000  0.75000
E55   E   0.25000  0.75000  0.00000
E56   E   0.25000  0.75000  0.50000
E57   E   0.33834  0.06466  0.16166
E58   E   0.33834  0.06466  0.16166
E59   E   0.33834  0.06466  0.83834
E60   E   0.33834  0.16166  0.06466
E61   E   0.33834  0.16166  0.93534
E62   E   0.33834  0.16166  0.06466
E63   E   0.33834  0.16166  0.93534
E64   E   0.33834  0.33834  0.43534
E65   E   0.33834  0.33834  0.56466
E66   E   0.33834  0.43534  0.33834
E67   E   0.33834  0.43534  0.66166
E68   E   0.33834  0.56466  0.33834
E69   E   0.33834  0.56466  0.66166
E70   E   0.33834  0.66166  0.43534
E71   E   0.33834  0.66166  0.56466
E72   E   0.33834  0.83834  0.06466
E73   E   0.33834  0.83834  0.93534
E74   E   0.33834  0.93534  0.16166
E75   E   0.33834  0.93534  0.16166
E76   E   0.33834  0.93534  0.83834
E77   E   0.43534  0.16166  0.16166
E78   E   0.43534  0.16166  0.83834
E79   E   0.43534  0.16166  0.16166
E80   E   0.43534  0.16166  0.83834
E81   E   0.43534  0.33834  0.33834
E82   E   0.43534  0.33834  0.66166
E83   E   0.43534  0.66166  0.33834
E84   E   0.43534  0.66166  0.66166
E85   E   0.43534  0.83834  0.16166
E86   E   0.43534  0.83834  0.16166
E87   E   0.43534  0.83834  0.83834
E88   E   0.50000  0.25000  0.25000
E89   E   0.50000  0.25000  0.75000
E90   E   0.50000  0.75000  0.25000
E91   E   0.50000  0.75000  0.75000
E92   E   0.56466  0.16166  0.16166
E93   E   0.56466  0.16166  0.83834
E94   E   0.56466  0.16166  0.16166
E95   E   0.56466  0.16166  0.83834
E96   E   0.56466  0.33834  0.33834
E97   E   0.56466  0.33834  0.66166
E98   E   0.56466  0.66166  0.33834
E99   E   0.56466  0.66166  0.66166
E100  E   0.56466  0.83834  0.16166
E101  E   0.56466  0.83834  0.16166
E102  E   0.56466  0.83834  0.83834
E103  E   0.66166  0.06466  0.16166
E104  E   0.66166  0.06466  0.16166
E105  E   0.66166  0.06466  0.83834
E106  E   0.66166  0.16166  0.06466
E107  E   0.66166  0.16166  0.93534
E108  E   0.66166  0.16166  0.06466
E109  E   0.66166  0.16166  0.93534
E110  E   0.66166  0.33834  0.43534
E111  E   0.66166  0.33834  0.56466
E112  E   0.66166  0.43534  0.33834
E113  E   0.66166  0.43534  0.66166
E114  E   0.66166  0.56466  0.33834
E115  E   0.66166  0.56466  0.66166
E116  E   0.66166  0.66166  0.43534
E117  E   0.66166  0.66166  0.56466
E118  E   0.66166  0.83834  0.06466
E119  E   0.66166  0.83834  0.93534
E120  E   0.66166  0.93534  0.16166
E121  E   0.66166  0.93534  0.16166
E122  E   0.66166  0.93534  0.83834
E123  E   0.75000  0.00000  0.25000
E124  E   0.75000  0.00000  0.75000
E125  E   0.75000  0.25000  0.00000
E126  E   0.75000  0.25000  0.50000
E127  E   0.75000  0.50000  0.25000
E128  E   0.75000  0.50000  0.75000
E129  E   0.75000  0.75000  0.00000
E130  E   0.75000  0.75000  0.50000
E131  E   0.83834  0.06466  0.33834
E132  E   0.83834  0.06466  0.66166
E133  E   0.83834  0.16166  0.43534
E134  E   0.83834  0.16166  0.56466
E135  E   0.83834  0.16166  0.43534
E136  E   0.83834  0.16166  0.56466
E137  E   0.83834  0.33834  0.06466
E138  E   0.83834  0.33834  0.93534
E139  E   0.83834  0.43534  0.16166
E140  E   0.83834  0.43534  0.16166
E141  E   0.83834  0.43534  0.83834
E142  E   0.83834  0.56466  0.16166
E143  E   0.83834  0.56466  0.16166
E144  E   0.83834  0.56466  0.83834
E145  E   0.83834  0.66166  0.06466
E146  E   0.83834  0.66166  0.93534
E147  E   0.83834  0.83834  0.43534
E148  E   0.83834  0.83834  0.56466
E149  E   0.83834  0.93534  0.33834
E150  E   0.83834  0.93534  0.66166
E151  E   0.93534  0.16166  0.33834
E152  E   0.93534  0.16166  0.66166
E153  E   0.93534  0.16166  0.33834
E154  E   0.93534  0.16166  0.66166
E155  E   0.93534  0.33834  0.16166
E156  E   0.93534  0.33834  0.16166
E157  E   0.93534  0.33834  0.83834
E158  E   0.93534  0.66166  0.16166
E159  E   0.93534  0.66166  0.16166
E160  E   0.93534  0.66166  0.83834
E161  E   0.93534  0.83834  0.33834
E162  E   0.93534  0.83834  0.66166
loop_
