data_xat_P63/mmc  hall_number: 488, V_con: 6, EC_con: 4
_audit_creation_date              2025-03-06
_audit_creation_method            'MOFbuilder_1.0'
_symmetry_space_group_name_H-M    'P1'
_symmetry_Int_Tables_number       1
_symmetry_cell_setting            triclinic
loop_
_symmetry_equiv_pos_as_xyz
  x,y,z
_cell_length_a                    15.6359
_cell_length_b                    15.6359
_cell_length_c                    37.2076
_cell_angle_alpha                 90.0
_cell_angle_beta                  90.0
_cell_angle_gamma                 120.0
loop_
_atom_site_label
_atom_site_type_symbol
_atom_site_fract_x
_atom_site_fract_y
_atom_site_fract_z
V1    V   0.00000  0.00000  0.00000
V2    V   0.00000  0.00000  0.50000
EC1    EC   0.33333  0.66666  0.11562
EC2    EC   0.33333  0.66666  0.38438
EC3    EC   0.33333  0.66667  0.11562
EC4    EC   0.33333  0.66667  0.38438
EC5    EC   0.33334  0.66667  0.11562
EC6    EC   0.33334  0.66667  0.38438
EC7    EC   0.66666  0.33333  0.61562
EC8    EC   0.66666  0.33333  0.88438
EC9    EC   0.66667  0.33333  0.61562
EC10   EC   0.66667  0.33333  0.88438
EC11   EC   0.66667  0.33334  0.61562
EC12   EC   0.66667  0.33334  0.88438
E1    E   0.16667  0.33334  0.05781
E2    E   0.16667  0.33334  0.44219
E3    E   0.16667  0.83333  0.05781
E4    E   0.16667  0.83333  0.44219
E5    E   0.33333  0.66666  0.25000
E6    E   0.33333  0.66667  0.25000
E7    E   0.33334  0.66667  0.25000
E8    E   0.33334  0.16667  0.55781
E9    E   0.33334  0.16667  0.94219
E10   E   0.66666  0.33333  0.75000
E11   E   0.66666  0.83333  0.05781
E12   E   0.66666  0.83333  0.44219
E13   E   0.66667  0.33333  0.75000
E14   E   0.66667  0.33334  0.75000
E15   E   0.83333  0.16667  0.55781
E16   E   0.83333  0.16667  0.94219
E17   E   0.83333  0.66666  0.55781
E18   E   0.83333  0.66666  0.94219
loop_
