data_xbm_Pm-3m  hall_number: 517, V_con: 8, EC_con: 4
_audit_creation_date              2025-03-06
_audit_creation_method            'MOFbuilder_1.0'
_symmetry_space_group_name_H-M    'P1'
_symmetry_Int_Tables_number       1
_symmetry_cell_setting            triclinic
loop_
_symmetry_equiv_pos_as_xyz
  x,y,z
_cell_length_a                    21.547
_cell_length_b                    21.547
_cell_length_c                    21.547
_cell_angle_alpha                 90.0
_cell_angle_beta                  90.0
_cell_angle_gamma                 90.0
loop_
_atom_site_label
_atom_site_type_symbol
_atom_site_fract_x
_atom_site_fract_y
_atom_site_fract_z
V1    V   0.00000  0.00000  0.00000
EC1    EC   0.26795  0.26795  0.26795
EC2    EC   0.26795  0.26795  0.73205
EC3    EC   0.26795  0.73205  0.26795
EC4    EC   0.26795  0.73205  0.73205
EC5    EC   0.73205  0.26795  0.26795
EC6    EC   0.73205  0.26795  0.73205
EC7    EC   0.73205  0.73205  0.26795
EC8    EC   0.73205  0.73205  0.73205
E1    E   0.13397  0.13397  0.13397
E2    E   0.13397  0.13397  0.86603
E3    E   0.13397  0.86603  0.13397
E4    E   0.13397  0.86603  0.86603
E5    E   0.26795  0.26795  0.50000
E6    E   0.26795  0.50000  0.26795
E7    E   0.26795  0.50000  0.73205
E8    E   0.26795  0.73205  0.50000
E9    E   0.50000  0.26795  0.26795
E10   E   0.50000  0.26795  0.73205
E11   E   0.50000  0.73205  0.26795
E12   E   0.50000  0.73205  0.73205
E13   E   0.73205  0.26795  0.50000
E14   E   0.73205  0.50000  0.26795
E15   E   0.73205  0.50000  0.73205
E16   E   0.73205  0.73205  0.50000
E17   E   0.86603  0.13397  0.13397
E18   E   0.86603  0.13397  0.86603
E19   E   0.86603  0.86603  0.13397
E20   E   0.86603  0.86603  0.86603
loop_
