data_xda_Immm  hall_number: 337, V_con: 4, EC_con: 4
_audit_creation_date              2025-03-06
_audit_creation_method            'MOFbuilder_1.0'
_symmetry_space_group_name_H-M    'P1'
_symmetry_Int_Tables_number       1
_symmetry_cell_setting            triclinic
loop_
_symmetry_equiv_pos_as_xyz
  x,y,z
_cell_length_a                    18.169900000000002
_cell_length_b                    22.1528
_cell_length_c                    39.8444
_cell_angle_alpha                 90.0
_cell_angle_beta                  90.0
_cell_angle_gamma                 90.0
loop_
_atom_site_label
_atom_site_type_symbol
_atom_site_fract_x
_atom_site_fract_y
_atom_site_fract_z
V1    V   0.00000  0.27430  0.30067
V2    V   0.00000  0.27430  0.69933
V3    V   0.00000  0.72570  0.30067
V4    V   0.00000  0.72570  0.69933
V5    V   0.50000  0.22570  0.19933
V6    V   0.50000  0.22570  0.80067
V7    V   0.50000  0.77430  0.19933
V8    V   0.50000  0.77430  0.80067
EC1    EC   0.00000  0.00000  0.50000
EC2    EC   0.50000  0.50000  0.00000
E1    E   0.00000  0.13715  0.40034
E2    E   0.00000  0.13715  0.59966
E3    E   0.00000  0.50000  0.30067
E4    E   0.00000  0.50000  0.69933
E5    E   0.00000  0.86285  0.40034
E6    E   0.00000  0.86285  0.59966
E7    E   0.25000  0.25000  0.25000
E8    E   0.25000  0.25000  0.75000
E9    E   0.25000  0.75000  0.25000
E10   E   0.25000  0.75000  0.75000
E11   E   0.50000  0.00000  0.19933
E12   E   0.50000  0.00000  0.80067
E13   E   0.50000  0.36285  0.09966
E14   E   0.50000  0.36285  0.90034
E15   E   0.50000  0.63715  0.09966
E16   E   0.50000  0.63715  0.90034
E17   E   0.75000  0.25000  0.25000
E18   E   0.75000  0.25000  0.75000
E19   E   0.75000  0.75000  0.25000
E20   E   0.75000  0.75000  0.75000
loop_
