data_xfa_P41212  hall_number: 369, V_con: 7
_audit_creation_date              2025-03-06
_audit_creation_method            'MOFbuilder_1.0'
_symmetry_space_group_name_H-M    'P1'
_symmetry_Int_Tables_number       1
_symmetry_cell_setting            triclinic
loop_
_symmetry_equiv_pos_as_xyz
  x,y,z
_cell_length_a                    26.855000000000004
_cell_length_b                    26.855000000000004
_cell_length_c                    10.0
_cell_angle_alpha                 90.0
_cell_angle_beta                  90.0
_cell_angle_gamma                 90.0
loop_
_atom_site_label
_atom_site_type_symbol
_atom_site_fract_x
_atom_site_fract_y
_atom_site_fract_z
V1    V   0.01764  0.24567  0.24999
V2    V   0.24567  0.01764  0.75001
V3    V   0.25433  0.51764  0.49999
V4    V   0.48236  0.74567  0.00001
V5    V   0.51764  0.25433  0.50001
V6    V   0.74567  0.48236  0.99999
V7    V   0.75433  0.98236  0.25001
V8    V   0.98236  0.75433  0.74999
E1    E   0.01764  0.24567  0.74999
E2    E   0.11401  0.88599  0.75000
E3    E   0.11835  0.63599  0.62499
E4    E   0.13165  0.13165  0.00000
E5    E   0.13165  0.13165  0.50000
E6    E   0.13599  0.38165  0.37499
E7    E   0.24567  0.01764  0.25001
E8    E   0.25433  0.51764  0.99999
E9    E   0.36401  0.88165  0.87501
E10   E   0.36835  0.63165  0.25000
E11   E   0.36835  0.63165  0.75000
E12   E   0.38165  0.13599  0.62501
E13   E   0.38599  0.38599  0.50000
E14   E   0.48236  0.74567  0.50001
E15   E   0.51764  0.25433  0.00001
E16   E   0.61401  0.61401  0.00000
E17   E   0.61835  0.86401  0.12501
E18   E   0.63165  0.36835  0.25000
E19   E   0.63165  0.36835  0.75000
E20   E   0.63599  0.11835  0.37501
E21   E   0.74567  0.48236  0.49999
E22   E   0.75433  0.98236  0.75001
E23   E   0.86401  0.61835  0.87499
E24   E   0.86835  0.86835  0.00000
E25   E   0.86835  0.86835  0.50000
E26   E   0.88165  0.36401  0.12499
E27   E   0.88599  0.11401  0.25000
E28   E   0.98236  0.75433  0.24999
loop_
