data_xfe_I41/amd:2  hall_number: 427, V_con: 7
_audit_creation_date              2025-03-06
_audit_creation_method            'MOFbuilder_1.0'
_symmetry_space_group_name_H-M    'P1'
_symmetry_Int_Tables_number       1
_symmetry_cell_setting            triclinic
loop_
_symmetry_equiv_pos_as_xyz
  x,y,z
_cell_length_a                    24.0455
_cell_length_b                    24.0455
_cell_length_c                    20.2703
_cell_angle_alpha                 90.0
_cell_angle_beta                  90.0
_cell_angle_gamma                 90.0
loop_
_atom_site_label
_atom_site_type_symbol
_atom_site_fract_x
_atom_site_fract_y
_atom_site_fract_z
V1    V   0.00000  0.04206  0.15381
V2    V   0.00000  0.45794  0.15381
V3    V   0.00000  0.54206  0.84619
V4    V   0.00000  0.95794  0.84619
V5    V   0.20794  0.25000  0.59619
V6    V   0.20794  0.75000  0.40381
V7    V   0.29206  0.25000  0.90381
V8    V   0.29206  0.75000  0.09619
V9    V   0.50000  0.04206  0.34619
V10   V   0.50000  0.45794  0.34619
V11   V   0.50000  0.54206  0.65381
V12   V   0.50000  0.95794  0.65381
V13   V   0.70794  0.25000  0.90381
V14   V   0.70794  0.75000  0.09619
V15   V   0.79206  0.25000  0.59619
V16   V   0.79206  0.75000  0.40381
E1    E   0.00000  0.25000  0.15381
E2    E   0.00000  0.25000  0.59619
E3    E   0.00000  0.75000  0.40381
E4    E   0.00000  0.75000  0.84619
E5    E   0.10397  0.10397  0.72119
E6    E   0.10397  0.39603  0.72119
E7    E   0.10397  0.60397  0.27881
E8    E   0.10397  0.89603  0.27881
E9    E   0.14603  0.10397  0.87500
E10   E   0.14603  0.14603  0.02881
E11   E   0.14603  0.35397  0.02881
E12   E   0.14603  0.39603  0.87500
E13   E   0.14603  0.60397  0.12500
E14   E   0.14603  0.64603  0.97119
E15   E   0.14603  0.85397  0.97119
E16   E   0.14603  0.89603  0.12500
E17   E   0.35397  0.10397  0.62500
E18   E   0.35397  0.14603  0.47119
E19   E   0.35397  0.35397  0.47119
E20   E   0.35397  0.39603  0.62500
E21   E   0.35397  0.60397  0.37500
E22   E   0.35397  0.64603  0.52881
E23   E   0.35397  0.85397  0.52881
E24   E   0.35397  0.89603  0.37500
E25   E   0.39603  0.10397  0.77881
E26   E   0.39603  0.39603  0.77881
E27   E   0.39603  0.60397  0.22119
E28   E   0.39603  0.89603  0.22119
E29   E   0.50000  0.25000  0.34619
E30   E   0.50000  0.25000  0.90381
E31   E   0.50000  0.75000  0.09619
E32   E   0.50000  0.75000  0.65381
E33   E   0.60397  0.10397  0.77881
E34   E   0.60397  0.39603  0.77881
E35   E   0.60397  0.60397  0.22119
E36   E   0.60397  0.89603  0.22119
E37   E   0.64603  0.10397  0.62500
E38   E   0.64603  0.14603  0.47119
E39   E   0.64603  0.35397  0.47119
E40   E   0.64603  0.39603  0.62500
E41   E   0.64603  0.60397  0.37500
E42   E   0.64603  0.64603  0.52881
E43   E   0.64603  0.85397  0.52881
E44   E   0.64603  0.89603  0.37500
E45   E   0.85397  0.10397  0.87500
E46   E   0.85397  0.14603  0.02881
E47   E   0.85397  0.35397  0.02881
E48   E   0.85397  0.39603  0.87500
E49   E   0.85397  0.60397  0.12500
E50   E   0.85397  0.64603  0.97119
E51   E   0.85397  0.85397  0.97119
E52   E   0.85397  0.89603  0.12500
E53   E   0.89603  0.10397  0.72119
E54   E   0.89603  0.39603  0.72119
E55   E   0.89603  0.60397  0.27881
E56   E   0.89603  0.89603  0.27881
loop_
