data_xff_I41/a:2  hall_number: 365, V_con: 7
_audit_creation_date              2025-03-06
_audit_creation_method            'MOFbuilder_1.0'
_symmetry_space_group_name_H-M    'P1'
_symmetry_Int_Tables_number       1
_symmetry_cell_setting            triclinic
loop_
_symmetry_equiv_pos_as_xyz
  x,y,z
_cell_length_a                    19.2777
_cell_length_b                    19.2777
_cell_length_c                    36.5199
_cell_angle_alpha                 90.0
_cell_angle_beta                  90.0
_cell_angle_gamma                 90.0
loop_
_atom_site_label
_atom_site_type_symbol
_atom_site_fract_x
_atom_site_fract_y
_atom_site_fract_z
V1    V   0.10076  0.01101  0.78646
V2    V   0.10076  0.51101  0.21354
V3    V   0.23899  0.35076  0.46354
V4    V   0.23899  0.85076  0.53646
V5    V   0.26101  0.14924  0.03646
V6    V   0.26101  0.64924  0.96354
V7    V   0.39924  0.48899  0.71354
V8    V   0.39924  0.98899  0.28646
V9    V   0.60076  0.01101  0.71354
V10   V   0.60076  0.51101  0.28646
V11   V   0.73899  0.35076  0.03646
V12   V   0.73899  0.85076  0.96354
V13   V   0.76101  0.14924  0.46354
V14   V   0.76101  0.64924  0.53646
V15   V   0.89924  0.48899  0.78646
V16   V   0.89924  0.98899  0.21354
E1    E   0.00000  0.25000  0.46354
E2    E   0.00000  0.25000  0.78646
E3    E   0.00000  0.75000  0.21354
E4    E   0.00000  0.75000  0.53646
E5    E   0.08012  0.06912  0.12500
E6    E   0.08012  0.56912  0.87500
E7    E   0.14924  0.48899  0.75000
E8    E   0.14924  0.98899  0.25000
E9    E   0.16988  0.43088  0.33854
E10   E   0.16988  0.93088  0.66146
E11   E   0.18088  0.08012  0.91146
E12   E   0.18088  0.33012  0.12500
E13   E   0.18088  0.58012  0.08854
E14   E   0.18088  0.83012  0.87500
E15   E   0.23899  0.10076  0.50000
E16   E   0.23899  0.60076  0.50000
E17   E   0.26101  0.39924  0.00000
E18   E   0.26101  0.89924  0.00000
E19   E   0.31912  0.16988  0.37500
E20   E   0.31912  0.41988  0.58854
E21   E   0.31912  0.66988  0.62500
E22   E   0.31912  0.91988  0.41146
E23   E   0.33012  0.06912  0.16146
E24   E   0.33012  0.56912  0.83854
E25   E   0.35076  0.01101  0.75000
E26   E   0.35076  0.51101  0.25000
E27   E   0.41988  0.43088  0.37500
E28   E   0.41988  0.93088  0.62500
E29   E   0.50000  0.25000  0.03646
E30   E   0.50000  0.25000  0.71354
E31   E   0.50000  0.75000  0.28646
E32   E   0.50000  0.75000  0.96354
E33   E   0.58012  0.06912  0.37500
E34   E   0.58012  0.56912  0.62500
E35   E   0.64924  0.48899  0.75000
E36   E   0.64924  0.98899  0.25000
E37   E   0.66988  0.43088  0.16146
E38   E   0.66988  0.93088  0.83854
E39   E   0.68088  0.08012  0.58854
E40   E   0.68088  0.33012  0.37500
E41   E   0.68088  0.58012  0.41146
E42   E   0.68088  0.83012  0.62500
E43   E   0.73899  0.10076  0.00000
E44   E   0.73899  0.60076  0.00000
E45   E   0.76101  0.39924  0.50000
E46   E   0.76101  0.89924  0.50000
E47   E   0.81912  0.16988  0.12500
E48   E   0.81912  0.41988  0.91146
E49   E   0.81912  0.66988  0.87500
E50   E   0.81912  0.91988  0.08854
E51   E   0.83012  0.06912  0.33854
E52   E   0.83012  0.56912  0.66146
E53   E   0.85076  0.01101  0.75000
E54   E   0.85076  0.51101  0.25000
E55   E   0.91988  0.43088  0.12500
E56   E   0.91988  0.93088  0.87500
loop_
