data_xfh_I41/a:2  hall_number: 365, V_con: 7
_audit_creation_date              2025-03-06
_audit_creation_method            'MOFbuilder_1.0'
_symmetry_space_group_name_H-M    'P1'
_symmetry_Int_Tables_number       1
_symmetry_cell_setting            triclinic
loop_
_symmetry_equiv_pos_as_xyz
  x,y,z
_cell_length_a                    18.5131
_cell_length_b                    18.5131
_cell_length_c                    39.186299999999996
_cell_angle_alpha                 90.0
_cell_angle_beta                  90.0
_cell_angle_gamma                 90.0
loop_
_atom_site_label
_atom_site_type_symbol
_atom_site_fract_x
_atom_site_fract_y
_atom_site_fract_z
V1    V   0.19581  0.05419  0.83407
V2    V   0.19581  0.44581  0.41593
V3    V   0.19581  0.55419  0.16593
V4    V   0.19581  0.94581  0.58407
V5    V   0.30419  0.05419  0.08407
V6    V   0.30419  0.44581  0.66593
V7    V   0.30419  0.55419  0.91593
V8    V   0.30419  0.94581  0.33407
V9    V   0.69581  0.05419  0.66593
V10   V   0.69581  0.44581  0.08407
V11   V   0.69581  0.55419  0.33407
V12   V   0.69581  0.94581  0.91593
V13   V   0.80419  0.05419  0.41593
V14   V   0.80419  0.44581  0.83407
V15   V   0.80419  0.55419  0.58407
V16   V   0.80419  0.94581  0.16593
E1    E   0.00000  0.00000  0.50000
E2    E   0.00000  0.50000  0.50000
E3    E   0.05419  0.00000  0.12500
E4    E   0.05419  0.50000  0.87500
E5    E   0.05419  0.00000  0.37500
E6    E   0.05419  0.50000  0.62500
E7    E   0.19581  0.00000  0.70907
E8    E   0.19581  0.50000  0.29093
E9    E   0.25000  0.05419  0.95907
E10   E   0.25000  0.19581  0.37500
E11   E   0.25000  0.19581  0.62500
E12   E   0.25000  0.25000  0.75000
E13   E   0.25000  0.30419  0.87500
E14   E   0.25000  0.30419  0.12500
E15   E   0.25000  0.44581  0.54093
E16   E   0.25000  0.55419  0.04093
E17   E   0.25000  0.69581  0.37500
E18   E   0.25000  0.69581  0.62500
E19   E   0.25000  0.75000  0.25000
E20   E   0.25000  0.80419  0.12500
E21   E   0.25000  0.80419  0.87500
E22   E   0.25000  0.94581  0.45907
E23   E   0.30419  0.00000  0.20907
E24   E   0.30419  0.50000  0.79093
E25   E   0.44581  0.00000  0.62500
E26   E   0.44581  0.50000  0.37500
E27   E   0.44581  0.00000  0.87500
E28   E   0.44581  0.50000  0.12500
E29   E   0.50000  0.00000  0.00000
E30   E   0.50000  0.50000  0.00000
E31   E   0.55419  0.00000  0.12500
E32   E   0.55419  0.00000  0.37500
E33   E   0.55419  0.50000  0.62500
E34   E   0.55419  0.50000  0.87500
E35   E   0.69581  0.00000  0.79093
E36   E   0.69581  0.50000  0.20907
E37   E   0.75000  0.05419  0.54093
E38   E   0.75000  0.19581  0.12500
E39   E   0.75000  0.19581  0.87500
E40   E   0.75000  0.25000  0.75000
E41   E   0.75000  0.30419  0.62500
E42   E   0.75000  0.30419  0.37500
E43   E   0.75000  0.44581  0.95907
E44   E   0.75000  0.55419  0.45907
E45   E   0.75000  0.69581  0.12500
E46   E   0.75000  0.69581  0.87500
E47   E   0.75000  0.75000  0.25000
E48   E   0.75000  0.80419  0.37500
E49   E   0.75000  0.80419  0.62500
E50   E   0.75000  0.94581  0.04093
E51   E   0.80419  0.00000  0.29093
E52   E   0.80419  0.50000  0.70907
E53   E   0.94581  0.00000  0.62500
E54   E   0.94581  0.00000  0.87500
E55   E   0.94581  0.50000  0.12500
E56   E   0.94581  0.50000  0.37500
loop_
