data_xfm_I41/acd:2  hall_number: 429, V_con: 7
_audit_creation_date              2025-03-06
_audit_creation_method            'MOFbuilder_1.0'
_symmetry_space_group_name_H-M    'P1'
_symmetry_Int_Tables_number       1
_symmetry_cell_setting            triclinic
loop_
_symmetry_equiv_pos_as_xyz
  x,y,z
_cell_length_a                    61.180099999999996
_cell_length_b                    61.180099999999996
_cell_length_c                    10.0
_cell_angle_alpha                 90.0
_cell_angle_beta                  90.0
_cell_angle_gamma                 90.0
loop_
_atom_site_label
_atom_site_type_symbol
_atom_site_fract_x
_atom_site_fract_y
_atom_site_fract_z
V1    V   0.07078  0.07913  0.87500
V2    V   0.07078  0.42087  0.37500
V3    V   0.07078  0.57913  0.12500
V4    V   0.07078  0.92087  0.62500
V5    V   0.17087  0.17922  0.37500
V6    V   0.17087  0.32078  0.87500
V7    V   0.17087  0.67922  0.62500
V8    V   0.17087  0.82078  0.12500
V9    V   0.32913  0.17922  0.62500
V10   V   0.32913  0.32078  0.12500
V11   V   0.32913  0.67922  0.37500
V12   V   0.32913  0.82078  0.87500
V13   V   0.42922  0.07913  0.12500
V14   V   0.42922  0.42087  0.62500
V15   V   0.42922  0.57913  0.87500
V16   V   0.42922  0.92087  0.37500
V17   V   0.57078  0.07913  0.62500
V18   V   0.57078  0.42087  0.12500
V19   V   0.57078  0.57913  0.37500
V20   V   0.57078  0.92087  0.87500
V21   V   0.67087  0.17922  0.12500
V22   V   0.67087  0.32078  0.62500
V23   V   0.67087  0.67922  0.87500
V24   V   0.67087  0.82078  0.37500
V25   V   0.82913  0.17922  0.87500
V26   V   0.82913  0.32078  0.37500
V27   V   0.82913  0.67922  0.12500
V28   V   0.82913  0.82078  0.62500
V29   V   0.92922  0.07913  0.37500
V30   V   0.92922  0.42087  0.87500
V31   V   0.92922  0.57913  0.62500
V32   V   0.92922  0.92087  0.12500
E1    E   0.00000  0.07913  0.12500
E2    E   0.00000  0.07913  0.62500
E3    E   0.00000  0.42087  0.12500
E4    E   0.00000  0.42087  0.62500
E5    E   0.00000  0.57913  0.37500
E6    E   0.00000  0.57913  0.87500
E7    E   0.00000  0.92087  0.37500
E8    E   0.00000  0.92087  0.87500
E9    E   0.07078  0.00000  0.75000
E10   E   0.07078  0.07913  0.37500
E11   E   0.07078  0.42087  0.87500
E12   E   0.07078  0.50000  0.25000
E13   E   0.07078  0.57913  0.62500
E14   E   0.07078  0.92087  0.12500
E15   E   0.12082  0.12918  0.12500
E16   E   0.12082  0.12918  0.62500
E17   E   0.12082  0.37082  0.12500
E18   E   0.12082  0.37082  0.62500
E19   E   0.12082  0.62918  0.37500
E20   E   0.12082  0.62918  0.87500
E21   E   0.12082  0.87082  0.37500
E22   E   0.12082  0.87082  0.87500
E23   E   0.12082  0.12918  0.12500
E24   E   0.12082  0.12918  0.62500
E25   E   0.12082  0.37082  0.12500
E26   E   0.12082  0.37082  0.62500
E27   E   0.12082  0.62918  0.37500
E28   E   0.12082  0.62918  0.87500
E29   E   0.12082  0.87082  0.37500
E30   E   0.12082  0.87082  0.87500
E31   E   0.17087  0.17922  0.87500
E32   E   0.17087  0.25000  0.12500
E33   E   0.17087  0.25000  0.62500
E34   E   0.17087  0.32078  0.37500
E35   E   0.17087  0.67922  0.12500
E36   E   0.17087  0.75000  0.37500
E37   E   0.17087  0.75000  0.87500
E38   E   0.17087  0.82078  0.62500
E39   E   0.25000  0.17922  0.50000
E40   E   0.25000  0.32078  0.00000
E41   E   0.25000  0.67922  0.50000
E42   E   0.25000  0.82078  0.00000
E43   E   0.32913  0.17922  0.12500
E44   E   0.32913  0.25000  0.37500
E45   E   0.32913  0.25000  0.87500
E46   E   0.32913  0.32078  0.62500
E47   E   0.32913  0.67922  0.87500
E48   E   0.32913  0.75000  0.12500
E49   E   0.32913  0.75000  0.62500
E50   E   0.32913  0.82078  0.37500
E51   E   0.37918  0.12918  0.37500
E52   E   0.37918  0.12918  0.87500
E53   E   0.37918  0.37082  0.37500
E54   E   0.37918  0.37082  0.87500
E55   E   0.37918  0.62918  0.12500
E56   E   0.37918  0.62918  0.62500
E57   E   0.37918  0.87082  0.12500
E58   E   0.37918  0.87082  0.62500
E59   E   0.37918  0.12918  0.37500
E60   E   0.37918  0.12918  0.87500
E61   E   0.37918  0.37082  0.37500
E62   E   0.37918  0.37082  0.87500
E63   E   0.37918  0.62918  0.12500
E64   E   0.37918  0.62918  0.62500
E65   E   0.37918  0.87082  0.12500
E66   E   0.37918  0.87082  0.62500
E67   E   0.42922  0.00000  0.25000
E68   E   0.42922  0.07913  0.62500
E69   E   0.42922  0.42087  0.12500
E70   E   0.42922  0.50000  0.75000
E71   E   0.42922  0.57913  0.37500
E72   E   0.42922  0.92087  0.87500
E73   E   0.50000  0.07913  0.37500
E74   E   0.50000  0.07913  0.87500
E75   E   0.50000  0.42087  0.37500
E76   E   0.50000  0.42087  0.87500
E77   E   0.50000  0.57913  0.12500
E78   E   0.50000  0.57913  0.62500
E79   E   0.50000  0.92087  0.12500
E80   E   0.50000  0.92087  0.62500
E81   E   0.57078  0.00000  0.75000
E82   E   0.57078  0.07913  0.12500
E83   E   0.57078  0.42087  0.62500
E84   E   0.57078  0.50000  0.25000
E85   E   0.57078  0.57913  0.87500
E86   E   0.57078  0.92087  0.37500
E87   E   0.62082  0.12918  0.37500
E88   E   0.62082  0.12918  0.87500
E89   E   0.62082  0.12918  0.37500
E90   E   0.62082  0.12918  0.87500
E91   E   0.62082  0.37082  0.37500
E92   E   0.62082  0.37082  0.87500
E93   E   0.62082  0.37082  0.37500
E94   E   0.62082  0.37082  0.87500
E95   E   0.62082  0.62918  0.12500
E96   E   0.62082  0.62918  0.62500
E97   E   0.62082  0.87082  0.12500
E98   E   0.62082  0.87082  0.62500
E99   E   0.67087  0.17922  0.62500
E100  E   0.67087  0.25000  0.37500
E101  E   0.67087  0.25000  0.87500
E102  E   0.67087  0.32078  0.12500
E103  E   0.67087  0.67922  0.37500
E104  E   0.67087  0.75000  0.12500
E105  E   0.67087  0.75000  0.62500
E106  E   0.67087  0.82078  0.87500
E107  E   0.75000  0.17922  0.00000
E108  E   0.75000  0.32078  0.50000
E109  E   0.75000  0.67922  0.00000
E110  E   0.75000  0.82078  0.50000
E111  E   0.82913  0.17922  0.37500
E112  E   0.82913  0.25000  0.12500
E113  E   0.82913  0.25000  0.62500
E114  E   0.82913  0.32078  0.87500
E115  E   0.82913  0.67922  0.62500
E116  E   0.82913  0.75000  0.37500
E117  E   0.82913  0.75000  0.87500
E118  E   0.82913  0.82078  0.12500
E119  E   0.87918  0.12918  0.12500
E120  E   0.87918  0.12918  0.62500
E121  E   0.87918  0.12918  0.12500
E122  E   0.87918  0.12918  0.62500
E123  E   0.87918  0.37082  0.12500
E124  E   0.87918  0.37082  0.62500
E125  E   0.87918  0.37082  0.12500
E126  E   0.87918  0.37082  0.62500
E127  E   0.87918  0.62918  0.37500
E128  E   0.87918  0.62918  0.87500
E129  E   0.87918  0.87082  0.37500
E130  E   0.87918  0.87082  0.87500
E131  E   0.92922  0.00000  0.25000
E132  E   0.92922  0.07913  0.87500
E133  E   0.92922  0.42087  0.37500
E134  E   0.92922  0.50000  0.75000
E135  E   0.92922  0.57913  0.12500
E136  E   0.92922  0.92087  0.62500
loop_
