data_xfo_I41/acd:2  hall_number: 429, V_con: 7
_audit_creation_date              2025-03-06
_audit_creation_method            'MOFbuilder_1.0'
_symmetry_space_group_name_H-M    'P1'
_symmetry_Int_Tables_number       1
_symmetry_cell_setting            triclinic
loop_
_symmetry_equiv_pos_as_xyz
  x,y,z
_cell_length_a                    43.210699999999996
_cell_length_b                    43.210699999999996
_cell_length_c                    17.8743
_cell_angle_alpha                 90.0
_cell_angle_beta                  90.0
_cell_angle_gamma                 90.0
loop_
_atom_site_label
_atom_site_type_symbol
_atom_site_fract_x
_atom_site_fract_y
_atom_site_fract_z
V1    V   0.05191  0.09591  0.40650
V2    V   0.05191  0.40409  0.90650
V3    V   0.05191  0.59591  0.59350
V4    V   0.05191  0.90409  0.09350
V5    V   0.15409  0.19809  0.84350
V6    V   0.15409  0.30191  0.34350
V7    V   0.15409  0.69809  0.15650
V8    V   0.15409  0.80191  0.65650
V9    V   0.34591  0.19809  0.15650
V10   V   0.34591  0.30191  0.65650
V11   V   0.34591  0.69809  0.84350
V12   V   0.34591  0.80191  0.34350
V13   V   0.44809  0.09591  0.59350
V14   V   0.44809  0.40409  0.09350
V15   V   0.44809  0.59591  0.40650
V16   V   0.44809  0.90409  0.90650
V17   V   0.55191  0.09591  0.09350
V18   V   0.55191  0.40409  0.59350
V19   V   0.55191  0.59591  0.90650
V20   V   0.55191  0.90409  0.40650
V21   V   0.65409  0.19809  0.65650
V22   V   0.65409  0.30191  0.15650
V23   V   0.65409  0.69809  0.34350
V24   V   0.65409  0.80191  0.84350
V25   V   0.84591  0.19809  0.34350
V26   V   0.84591  0.30191  0.84350
V27   V   0.84591  0.69809  0.65650
V28   V   0.84591  0.80191  0.15650
V29   V   0.94809  0.09591  0.90650
V30   V   0.94809  0.40409  0.40650
V31   V   0.94809  0.59591  0.09350
V32   V   0.94809  0.90409  0.59350
E1    E   0.00000  0.00000  0.00000
E2    E   0.00000  0.00000  0.50000
E3    E   0.00000  0.09591  0.15650
E4    E   0.00000  0.09591  0.65650
E5    E   0.00000  0.40409  0.15650
E6    E   0.00000  0.40409  0.65650
E7    E   0.00000  0.50000  0.00000
E8    E   0.00000  0.50000  0.50000
E9    E   0.00000  0.59591  0.34350
E10   E   0.00000  0.59591  0.84350
E11   E   0.00000  0.90409  0.34350
E12   E   0.00000  0.90409  0.84350
E13   E   0.05109  0.14700  0.87500
E14   E   0.05109  0.35300  0.37500
E15   E   0.05109  0.64700  0.12500
E16   E   0.05109  0.85300  0.62500
E17   E   0.05191  0.00000  0.25000
E18   E   0.05191  0.50000  0.75000
E19   E   0.10300  0.14700  0.62500
E20   E   0.10300  0.19891  0.37500
E21   E   0.10300  0.30109  0.87500
E22   E   0.10300  0.35300  0.12500
E23   E   0.10300  0.64700  0.37500
E24   E   0.10300  0.69891  0.62500
E25   E   0.10300  0.80109  0.12500
E26   E   0.10300  0.85300  0.87500
E27   E   0.10300  0.14700  0.62500
E28   E   0.10300  0.35300  0.12500
E29   E   0.10300  0.64700  0.37500
E30   E   0.10300  0.85300  0.87500
E31   E   0.15409  0.25000  0.09350
E32   E   0.15409  0.25000  0.59350
E33   E   0.15409  0.75000  0.40650
E34   E   0.15409  0.75000  0.90650
E35   E   0.25000  0.19809  0.00000
E36   E   0.25000  0.25000  0.25000
E37   E   0.25000  0.25000  0.75000
E38   E   0.25000  0.30191  0.50000
E39   E   0.25000  0.69809  0.00000
E40   E   0.25000  0.75000  0.25000
E41   E   0.25000  0.75000  0.75000
E42   E   0.25000  0.80191  0.50000
E43   E   0.34591  0.25000  0.40650
E44   E   0.34591  0.25000  0.90650
E45   E   0.34591  0.75000  0.09350
E46   E   0.34591  0.75000  0.59350
E47   E   0.39700  0.14700  0.37500
E48   E   0.39700  0.14700  0.37500
E49   E   0.39700  0.19891  0.62500
E50   E   0.39700  0.30109  0.12500
E51   E   0.39700  0.35300  0.87500
E52   E   0.39700  0.64700  0.62500
E53   E   0.39700  0.69891  0.37500
E54   E   0.39700  0.80109  0.87500
E55   E   0.39700  0.85300  0.12500
E56   E   0.44809  0.00000  0.75000
E57   E   0.44809  0.50000  0.25000
E58   E   0.44891  0.14700  0.12500
E59   E   0.44891  0.35300  0.62500
E60   E   0.44891  0.64700  0.87500
E61   E   0.44891  0.85300  0.37500
E62   E   0.50000  0.00000  0.00000
E63   E   0.50000  0.00000  0.50000
E64   E   0.50000  0.09591  0.34350
E65   E   0.50000  0.09591  0.84350
E66   E   0.50000  0.40409  0.34350
E67   E   0.50000  0.40409  0.84350
E68   E   0.50000  0.50000  0.00000
E69   E   0.50000  0.50000  0.50000
E70   E   0.50000  0.59591  0.15650
E71   E   0.50000  0.59591  0.65650
E72   E   0.50000  0.90409  0.15650
E73   E   0.50000  0.90409  0.65650
E74   E   0.55109  0.14700  0.62500
E75   E   0.55109  0.35300  0.12500
E76   E   0.55109  0.64700  0.37500
E77   E   0.55109  0.85300  0.87500
E78   E   0.55191  0.00000  0.25000
E79   E   0.55191  0.50000  0.75000
E80   E   0.60300  0.14700  0.87500
E81   E   0.60300  0.14700  0.87500
E82   E   0.60300  0.19891  0.12500
E83   E   0.60300  0.30109  0.62500
E84   E   0.60300  0.35300  0.37500
E85   E   0.60300  0.64700  0.12500
E86   E   0.60300  0.69891  0.87500
E87   E   0.60300  0.80109  0.37500
E88   E   0.60300  0.85300  0.62500
E89   E   0.65409  0.25000  0.40650
E90   E   0.65409  0.25000  0.90650
E91   E   0.65409  0.75000  0.09350
E92   E   0.65409  0.75000  0.59350
E93   E   0.75000  0.19809  0.50000
E94   E   0.75000  0.25000  0.25000
E95   E   0.75000  0.25000  0.75000
E96   E   0.75000  0.30191  0.00000
E97   E   0.75000  0.69809  0.50000
E98   E   0.75000  0.75000  0.25000
E99   E   0.75000  0.75000  0.75000
E100  E   0.75000  0.80191  0.00000
E101  E   0.84591  0.25000  0.09350
E102  E   0.84591  0.25000  0.59350
E103  E   0.84591  0.75000  0.40650
E104  E   0.84591  0.75000  0.90650
E105  E   0.89700  0.14700  0.12500
E106  E   0.89700  0.14700  0.12500
E107  E   0.89700  0.19891  0.87500
E108  E   0.89700  0.30109  0.37500
E109  E   0.89700  0.35300  0.62500
E110  E   0.89700  0.64700  0.87500
E111  E   0.89700  0.69891  0.12500
E112  E   0.89700  0.80109  0.62500
E113  E   0.89700  0.85300  0.37500
E114  E   0.94809  0.00000  0.75000
E115  E   0.94809  0.50000  0.25000
E116  E   0.94891  0.14700  0.37500
E117  E   0.94891  0.35300  0.87500
E118  E   0.94891  0.64700  0.62500
E119  E   0.94891  0.85300  0.12500
loop_
