data_xft_I41md  hall_number: 386, V_con: 5
_audit_creation_date              2025-03-06
_audit_creation_method            'MOFbuilder_1.0'
_symmetry_space_group_name_H-M    'P1'
_symmetry_Int_Tables_number       1
_symmetry_cell_setting            triclinic
loop_
_symmetry_equiv_pos_as_xyz
  x,y,z
_cell_length_a                    22.5834
_cell_length_b                    22.5834
_cell_length_c                    23.8041
_cell_angle_alpha                 90.0
_cell_angle_beta                  90.0
_cell_angle_gamma                 90.0
loop_
_atom_site_label
_atom_site_type_symbol
_atom_site_fract_x
_atom_site_fract_y
_atom_site_fract_z
V1    V   0.00000  0.22140  0.00000
V2    V   0.00000  0.77860  0.00000
V3    V   0.22140  0.50000  0.25000
V4    V   0.27860  0.00000  0.75000
V5    V   0.50000  0.27860  0.50000
V6    V   0.50000  0.72140  0.50000
V7    V   0.72140  0.00000  0.75000
V8    V   0.77860  0.50000  0.25000
E1    E   0.00000  0.00000  0.00000
E2    E   0.00000  0.50000  0.25000
E3    E   0.11070  0.36070  0.12500
E4    E   0.11070  0.63930  0.12500
E5    E   0.13930  0.11070  0.87500
E6    E   0.13930  0.88930  0.87500
E7    E   0.36070  0.38930  0.37500
E8    E   0.36070  0.61070  0.37500
E9    E   0.38930  0.13930  0.62500
E10   E   0.38930  0.86070  0.62500
E11   E   0.50000  0.00000  0.75000
E12   E   0.50000  0.50000  0.50000
E13   E   0.61070  0.13930  0.62500
E14   E   0.61070  0.86070  0.62500
E15   E   0.63930  0.38930  0.37500
E16   E   0.63930  0.61070  0.37500
E17   E   0.86070  0.11070  0.87500
E18   E   0.86070  0.88930  0.87500
E19   E   0.88930  0.36070  0.12500
E20   E   0.88930  0.63930  0.12500
loop_
