data_xfx_I-4m2  hall_number: 396, V_con: 5
_audit_creation_date              2025-03-06
_audit_creation_method            'MOFbuilder_1.0'
_symmetry_space_group_name_H-M    'P1'
_symmetry_Int_Tables_number       1
_symmetry_cell_setting            triclinic
loop_
_symmetry_equiv_pos_as_xyz
  x,y,z
_cell_length_a                    21.882
_cell_length_b                    21.882
_cell_length_c                    24.9882
_cell_angle_alpha                 90.0
_cell_angle_beta                  90.0
_cell_angle_gamma                 90.0
loop_
_atom_site_label
_atom_site_type_symbol
_atom_site_fract_x
_atom_site_fract_y
_atom_site_fract_z
V1    V   0.00000  0.27150  0.60851
V2    V   0.00000  0.72850  0.60851
V3    V   0.22850  0.50000  0.89149
V4    V   0.27150  0.00000  0.39149
V5    V   0.50000  0.22850  0.10851
V6    V   0.50000  0.77150  0.10851
V7    V   0.72850  0.00000  0.39149
V8    V   0.77150  0.50000  0.89149
E1    E   0.00000  0.50000  0.60851
E2    E   0.00000  0.50000  0.89149
E3    E   0.11425  0.38575  0.75000
E4    E   0.11425  0.61425  0.75000
E5    E   0.11425  0.38575  0.75000
E6    E   0.11425  0.61425  0.75000
E7    E   0.13575  0.13575  0.50000
E8    E   0.13575  0.86425  0.50000
E9    E   0.36425  0.36425  0.00000
E10   E   0.36425  0.63575  0.00000
E11   E   0.38575  0.11425  0.25000
E12   E   0.38575  0.11425  0.25000
E13   E   0.38575  0.88575  0.25000
E14   E   0.50000  0.00000  0.10851
E15   E   0.50000  0.00000  0.39149
E16   E   0.61425  0.11425  0.25000
E17   E   0.61425  0.11425  0.25000
E18   E   0.61425  0.88575  0.25000
E19   E   0.63575  0.36425  0.00000
E20   E   0.63575  0.63575  0.00000
E21   E   0.86425  0.13575  0.50000
E22   E   0.86425  0.86425  0.50000
E23   E   0.88575  0.38575  0.75000
E24   E   0.88575  0.61425  0.75000
loop_
