data_yfa_P4/nnc:2  hall_number: 405, V_con: 5
_audit_creation_date              2025-03-06
_audit_creation_method            'MOFbuilder_1.0'
_symmetry_space_group_name_H-M    'P1'
_symmetry_Int_Tables_number       1
_symmetry_cell_setting            triclinic
loop_
_symmetry_equiv_pos_as_xyz
  x,y,z
_cell_length_a                    34.305099999999996
_cell_length_b                    34.305099999999996
_cell_length_c                    18.294
_cell_angle_alpha                 90.0
_cell_angle_beta                  90.0
_cell_angle_gamma                 90.0
loop_
_atom_site_label
_atom_site_type_symbol
_atom_site_fract_x
_atom_site_fract_y
_atom_site_fract_z
V1    V   0.04465  0.62795  0.39940
V2    V   0.04465  0.87205  0.10060
V3    V   0.12795  0.54465  0.89940
V4    V   0.12795  0.95535  0.60060
V5    V   0.37205  0.54465  0.60060
V6    V   0.37205  0.95535  0.89940
V7    V   0.45535  0.62795  0.10060
V8    V   0.45535  0.87205  0.39940
V9    V   0.54465  0.12795  0.60060
V10   V   0.54465  0.37205  0.89940
V11   V   0.62795  0.04465  0.10060
V12   V   0.62795  0.45535  0.39940
V13   V   0.87205  0.04465  0.39940
V14   V   0.87205  0.45535  0.10060
V15   V   0.95535  0.12795  0.89940
V16   V   0.95535  0.37205  0.60060
E1    E   0.00000  0.00000  0.00000
E2    E   0.00000  0.00000  0.50000
E3    E   0.00000  0.50000  0.00000
E4    E   0.00000  0.50000  0.50000
E5    E   0.04165  0.04165  0.75000
E6    E   0.04165  0.45835  0.75000
E7    E   0.04165  0.04165  0.75000
E8    E   0.04165  0.45835  0.75000
E9    E   0.04465  0.75000  0.25000
E10   E   0.08630  0.58630  0.64940
E11   E   0.08630  0.91370  0.85060
E12   E   0.08630  0.58630  0.14940
E13   E   0.08630  0.91370  0.35060
E14   E   0.25000  0.54465  0.75000
E15   E   0.25000  0.95535  0.75000
E16   E   0.41370  0.58630  0.35060
E17   E   0.41370  0.91370  0.14940
E18   E   0.41370  0.58630  0.85060
E19   E   0.41370  0.91370  0.64940
E20   E   0.45535  0.75000  0.25000
E21   E   0.45835  0.04165  0.75000
E22   E   0.45835  0.45835  0.75000
E23   E   0.45835  0.04165  0.75000
E24   E   0.45835  0.45835  0.75000
E25   E   0.50000  0.00000  0.00000
E26   E   0.50000  0.00000  0.50000
E27   E   0.50000  0.50000  0.00000
E28   E   0.50000  0.50000  0.50000
E29   E   0.54165  0.54165  0.25000
E30   E   0.54165  0.95835  0.25000
E31   E   0.54465  0.25000  0.75000
E32   E   0.58630  0.08630  0.85060
E33   E   0.58630  0.08630  0.35060
E34   E   0.58630  0.41370  0.14940
E35   E   0.58630  0.41370  0.64940
E36   E   0.75000  0.04465  0.25000
E37   E   0.75000  0.45535  0.25000
E38   E   0.91370  0.08630  0.64940
E39   E   0.91370  0.08630  0.14940
E40   E   0.91370  0.41370  0.35060
E41   E   0.91370  0.41370  0.85060
E42   E   0.95535  0.25000  0.75000
E43   E   0.95835  0.54165  0.25000
E44   E   0.95835  0.95835  0.25000
loop_
