data_yfb_P4/nnc:2  hall_number: 405, V_con: 5
_audit_creation_date              2025-03-06
_audit_creation_method            'MOFbuilder_1.0'
_symmetry_space_group_name_H-M    'P1'
_symmetry_Int_Tables_number       1
_symmetry_cell_setting            triclinic
loop_
_symmetry_equiv_pos_as_xyz
  x,y,z
_cell_length_a                    23.819499999999998
_cell_length_b                    23.819499999999998
_cell_length_c                    30.0882
_cell_angle_alpha                 90.0
_cell_angle_beta                  90.0
_cell_angle_gamma                 90.0
loop_
_atom_site_label
_atom_site_type_symbol
_atom_site_fract_x
_atom_site_fract_y
_atom_site_fract_z
V1    V   0.08263  0.62330  0.38249
V2    V   0.08263  0.87670  0.11751
V3    V   0.12330  0.58263  0.88249
V4    V   0.12330  0.91737  0.61751
V5    V   0.37670  0.58263  0.61751
V6    V   0.37670  0.91737  0.88249
V7    V   0.41737  0.62330  0.11751
V8    V   0.41737  0.87670  0.38249
V9    V   0.58263  0.12330  0.61751
V10   V   0.58263  0.37670  0.88249
V11   V   0.62330  0.08263  0.11751
V12   V   0.62330  0.41737  0.38249
V13   V   0.87670  0.08263  0.38249
V14   V   0.87670  0.41737  0.11751
V15   V   0.91737  0.12330  0.88249
V16   V   0.91737  0.37670  0.61751
E1    E   0.00000  0.00000  0.00000
E2    E   0.00000  0.00000  0.50000
E3    E   0.00000  0.50000  0.00000
E4    E   0.00000  0.50000  0.50000
E5    E   0.08263  0.75000  0.25000
E6    E   0.10297  0.72967  0.00000
E7    E   0.10297  0.77033  0.50000
E8    E   0.22967  0.60297  0.50000
E9    E   0.22967  0.89703  0.00000
E10   E   0.25000  0.58263  0.75000
E11   E   0.25000  0.75000  0.11751
E12   E   0.25000  0.75000  0.38249
E13   E   0.25000  0.75000  0.61751
E14   E   0.25000  0.75000  0.88249
E15   E   0.25000  0.91737  0.75000
E16   E   0.27033  0.60297  0.00000
E17   E   0.27033  0.89703  0.50000
E18   E   0.39703  0.72967  0.50000
E19   E   0.39703  0.77033  0.00000
E20   E   0.41737  0.75000  0.25000
E21   E   0.50000  0.00000  0.00000
E22   E   0.50000  0.00000  0.50000
E23   E   0.50000  0.50000  0.00000
E24   E   0.50000  0.50000  0.50000
E25   E   0.58263  0.25000  0.75000
E26   E   0.60297  0.22967  0.00000
E27   E   0.60297  0.27033  0.50000
E28   E   0.72967  0.10297  0.50000
E29   E   0.72967  0.39703  0.00000
E30   E   0.75000  0.08263  0.25000
E31   E   0.75000  0.25000  0.11751
E32   E   0.75000  0.25000  0.38249
E33   E   0.75000  0.25000  0.61751
E34   E   0.75000  0.25000  0.88249
E35   E   0.75000  0.41737  0.25000
E36   E   0.77033  0.10297  0.00000
E37   E   0.77033  0.39703  0.50000
E38   E   0.89703  0.22967  0.50000
E39   E   0.89703  0.27033  0.00000
E40   E   0.91737  0.25000  0.75000
loop_
