data_yfd_P42/nbc:2  hall_number: 415, V_con: 5
_audit_creation_date              2025-03-06
_audit_creation_method            'MOFbuilder_1.0'
_symmetry_space_group_name_H-M    'P1'
_symmetry_Int_Tables_number       1
_symmetry_cell_setting            triclinic
loop_
_symmetry_equiv_pos_as_xyz
  x,y,z
_cell_length_a                    38.365700000000004
_cell_length_b                    38.365700000000004
_cell_length_c                    16.8542
_cell_angle_alpha                 90.0
_cell_angle_beta                  90.0
_cell_angle_gamma                 90.0
loop_
_atom_site_label
_atom_site_type_symbol
_atom_site_fract_x
_atom_site_fract_y
_atom_site_fract_z
V1    V   0.02457  0.62379  0.92602
V2    V   0.02457  0.87621  0.07398
V3    V   0.12379  0.52457  0.42602
V4    V   0.12379  0.97543  0.57398
V5    V   0.37621  0.52457  0.57398
V6    V   0.37621  0.97543  0.42602
V7    V   0.47543  0.62379  0.07398
V8    V   0.47543  0.87621  0.92602
V9    V   0.52457  0.12379  0.07398
V10   V   0.52457  0.37621  0.92602
V11   V   0.62379  0.02457  0.57398
V12   V   0.62379  0.47543  0.42602
V13   V   0.87621  0.02457  0.42602
V14   V   0.87621  0.47543  0.57398
V15   V   0.97543  0.12379  0.92602
V16   V   0.97543  0.37621  0.07398
E1    E   0.00000  0.00000  0.00000
E2    E   0.00000  0.00000  0.50000
E3    E   0.00000  0.50000  0.00000
E4    E   0.00000  0.50000  0.50000
E5    E   0.02457  0.75000  0.00000
E6    E   0.04961  0.04961  0.75000
E7    E   0.04961  0.45039  0.25000
E8    E   0.04961  0.04961  0.75000
E9    E   0.04961  0.45039  0.25000
E10   E   0.07418  0.57418  0.67602
E11   E   0.07418  0.92582  0.32398
E12   E   0.07418  0.57418  0.17602
E13   E   0.07418  0.92582  0.82398
E14   E   0.25000  0.52457  0.50000
E15   E   0.25000  0.97543  0.50000
E16   E   0.42582  0.57418  0.32398
E17   E   0.42582  0.57418  0.82398
E18   E   0.42582  0.92582  0.17602
E19   E   0.42582  0.92582  0.67602
E20   E   0.45039  0.04961  0.25000
E21   E   0.45039  0.04961  0.25000
E22   E   0.45039  0.45039  0.75000
E23   E   0.47543  0.75000  0.00000
E24   E   0.50000  0.00000  0.00000
E25   E   0.50000  0.00000  0.50000
E26   E   0.50000  0.50000  0.00000
E27   E   0.50000  0.50000  0.50000
E28   E   0.52457  0.25000  0.00000
E29   E   0.54961  0.54961  0.25000
E30   E   0.54961  0.95039  0.75000
E31   E   0.54961  0.54961  0.25000
E32   E   0.54961  0.95039  0.75000
E33   E   0.57418  0.07418  0.82398
E34   E   0.57418  0.07418  0.32398
E35   E   0.57418  0.42582  0.17602
E36   E   0.57418  0.42582  0.67602
E37   E   0.75000  0.02457  0.50000
E38   E   0.75000  0.47543  0.50000
E39   E   0.92582  0.07418  0.17602
E40   E   0.92582  0.07418  0.67602
E41   E   0.92582  0.42582  0.32398
E42   E   0.92582  0.42582  0.82398
E43   E   0.95039  0.54961  0.75000
E44   E   0.95039  0.95039  0.25000
E45   E   0.95039  0.54961  0.75000
E46   E   0.95039  0.95039  0.25000
E47   E   0.97543  0.25000  0.00000
loop_
