data_yfe_P42/nbc:2  hall_number: 415, V_con: 5
_audit_creation_date              2025-03-06
_audit_creation_method            'MOFbuilder_1.0'
_symmetry_space_group_name_H-M    'P1'
_symmetry_Int_Tables_number       1
_symmetry_cell_setting            triclinic
loop_
_symmetry_equiv_pos_as_xyz
  x,y,z
_cell_length_a                    19.9671
_cell_length_b                    19.9671
_cell_length_c                    36.3173
_cell_angle_alpha                 90.0
_cell_angle_beta                  90.0
_cell_angle_gamma                 90.0
loop_
_atom_site_label
_atom_site_type_symbol
_atom_site_fract_x
_atom_site_fract_y
_atom_site_fract_z
V1    V   0.01435  0.12459  0.61916
V2    V   0.01435  0.37541  0.38084
V3    V   0.12459  0.01435  0.88084
V4    V   0.12459  0.48565  0.11916
V5    V   0.37541  0.01435  0.11916
V6    V   0.37541  0.48565  0.88084
V7    V   0.48565  0.12459  0.38084
V8    V   0.48565  0.37541  0.61916
V9    V   0.51435  0.62459  0.38084
V10   V   0.51435  0.87541  0.61916
V11   V   0.62459  0.51435  0.11916
V12   V   0.62459  0.98565  0.88084
V13   V   0.87541  0.51435  0.88084
V14   V   0.87541  0.98565  0.11916
V15   V   0.98565  0.62459  0.61916
V16   V   0.98565  0.87541  0.38084
E1    E   0.00000  0.00000  0.00000
E2    E   0.00000  0.00000  0.50000
E3    E   0.00000  0.12541  0.38084
E4    E   0.00000  0.37459  0.61916
E5    E   0.00000  0.50000  0.00000
E6    E   0.00000  0.50000  0.50000
E7    E   0.00000  0.62541  0.38084
E8    E   0.00000  0.87459  0.61916
E9    E   0.01435  0.25000  0.50000
E10   E   0.06947  0.06947  0.75000
E11   E   0.06947  0.43053  0.25000
E12   E   0.06947  0.06947  0.75000
E13   E   0.06947  0.43053  0.25000
E14   E   0.12541  0.00000  0.11916
E15   E   0.12541  0.50000  0.88084
E16   E   0.25000  0.01435  0.00000
E17   E   0.25000  0.48565  0.00000
E18   E   0.37459  0.00000  0.88084
E19   E   0.37459  0.50000  0.11916
E20   E   0.43053  0.06947  0.25000
E21   E   0.43053  0.43053  0.75000
E22   E   0.43053  0.06947  0.25000
E23   E   0.43053  0.43053  0.75000
E24   E   0.48565  0.25000  0.50000
E25   E   0.50000  0.00000  0.00000
E26   E   0.50000  0.00000  0.50000
E27   E   0.50000  0.12541  0.61916
E28   E   0.50000  0.37459  0.38084
E29   E   0.50000  0.50000  0.00000
E30   E   0.50000  0.50000  0.50000
E31   E   0.50000  0.62541  0.61916
E32   E   0.50000  0.87459  0.38084
E33   E   0.51435  0.75000  0.50000
E34   E   0.56947  0.56947  0.25000
E35   E   0.56947  0.93053  0.75000
E36   E   0.56947  0.56947  0.25000
E37   E   0.56947  0.93053  0.75000
E38   E   0.62541  0.00000  0.11916
E39   E   0.62541  0.50000  0.88084
E40   E   0.75000  0.51435  0.00000
E41   E   0.75000  0.98565  0.00000
E42   E   0.87459  0.00000  0.88084
E43   E   0.87459  0.50000  0.11916
E44   E   0.93053  0.56947  0.75000
E45   E   0.93053  0.93053  0.25000
E46   E   0.93053  0.56947  0.75000
E47   E   0.93053  0.93053  0.25000
E48   E   0.98565  0.75000  0.50000
loop_
