data_yfg_P4122  hall_number: 368, V_con: 5
_audit_creation_date              2025-03-06
_audit_creation_method            'MOFbuilder_1.0'
_symmetry_space_group_name_H-M    'P1'
_symmetry_Int_Tables_number       1
_symmetry_cell_setting            triclinic
loop_
_symmetry_equiv_pos_as_xyz
  x,y,z
_cell_length_a                    21.095399999999998
_cell_length_b                    21.095399999999998
_cell_length_c                    23.6111
_cell_angle_alpha                 90.0
_cell_angle_beta                  90.0
_cell_angle_gamma                 90.0
loop_
_atom_site_label
_atom_site_type_symbol
_atom_site_fract_x
_atom_site_fract_y
_atom_site_fract_z
V1    V   0.23246  0.45962  0.04133
V2    V   0.23246  0.54038  0.45867
V3    V   0.45962  0.23246  0.70867
V4    V   0.45962  0.76754  0.79133
V5    V   0.54038  0.23246  0.29133
V6    V   0.54038  0.76754  0.20867
V7    V   0.76754  0.45962  0.95867
V8    V   0.76754  0.54038  0.54133
E1    E   0.00000  0.45962  0.00000
E2    E   0.00000  0.54038  0.50000
E3    E   0.23246  0.50000  0.25000
E4    E   0.34604  0.38642  0.58367
E5    E   0.34604  0.61358  0.91633
E6    E   0.38642  0.34604  0.16633
E7    E   0.38642  0.38642  0.37500
E8    E   0.38642  0.61358  0.12500
E9    E   0.38642  0.65396  0.33367
E10   E   0.45962  0.00000  0.75000
E11   E   0.50000  0.23246  0.50000
E12   E   0.50000  0.76754  0.00000
E13   E   0.54038  0.00000  0.25000
E14   E   0.61358  0.34604  0.83367
E15   E   0.61358  0.38642  0.62500
E16   E   0.61358  0.61358  0.87500
E17   E   0.61358  0.65396  0.66633
E18   E   0.65396  0.38642  0.41633
E19   E   0.65396  0.61358  0.08367
E20   E   0.76754  0.50000  0.75000
loop_
