data_yfm_I41/amd:2  hall_number: 427, V_con: 5
_audit_creation_date              2025-03-06
_audit_creation_method            'MOFbuilder_1.0'
_symmetry_space_group_name_H-M    'P1'
_symmetry_Int_Tables_number       1
_symmetry_cell_setting            triclinic
loop_
_symmetry_equiv_pos_as_xyz
  x,y,z
_cell_length_a                    41.6064
_cell_length_b                    41.6064
_cell_length_c                    24.861399999999996
_cell_angle_alpha                 90.0
_cell_angle_beta                  90.0
_cell_angle_gamma                 90.0
loop_
_atom_site_label
_atom_site_type_symbol
_atom_site_fract_x
_atom_site_fract_y
_atom_site_fract_z
V1    V   0.12017  0.02951  0.69495
V2    V   0.12017  0.47049  0.69495
V3    V   0.12017  0.52951  0.30505
V4    V   0.12017  0.97049  0.30505
V5    V   0.22049  0.12983  0.05505
V6    V   0.22049  0.37017  0.05505
V7    V   0.22049  0.62983  0.94495
V8    V   0.22049  0.87017  0.94495
V9    V   0.27951  0.12983  0.44495
V10   V   0.27951  0.37017  0.44495
V11   V   0.27951  0.62983  0.55505
V12   V   0.27951  0.87017  0.55505
V13   V   0.37983  0.02951  0.80505
V14   V   0.37983  0.47049  0.80505
V15   V   0.37983  0.52951  0.19495
V16   V   0.37983  0.97049  0.19495
V17   V   0.62017  0.02951  0.80505
V18   V   0.62017  0.47049  0.80505
V19   V   0.62017  0.52951  0.19495
V20   V   0.62017  0.97049  0.19495
V21   V   0.72049  0.12983  0.44495
V22   V   0.72049  0.37017  0.44495
V23   V   0.72049  0.62983  0.55505
V24   V   0.72049  0.87017  0.55505
V25   V   0.77951  0.12983  0.05505
V26   V   0.77951  0.37017  0.05505
V27   V   0.77951  0.62983  0.94495
V28   V   0.77951  0.87017  0.94495
V29   V   0.87983  0.02951  0.69495
V30   V   0.87983  0.47049  0.69495
V31   V   0.87983  0.52951  0.30505
V32   V   0.87983  0.97049  0.30505
E1    E   0.00000  0.02951  0.69495
E2    E   0.00000  0.47049  0.69495
E3    E   0.00000  0.52951  0.30505
E4    E   0.00000  0.97049  0.30505
E5    E   0.12017  0.00000  0.50000
E6    E   0.12017  0.50000  0.50000
E7    E   0.17033  0.05016  0.18005
E8    E   0.17033  0.44984  0.18005
E9    E   0.17033  0.55016  0.81995
E10   E   0.17033  0.94984  0.81995
E11   E   0.19984  0.05016  0.37500
E12   E   0.19984  0.07967  0.56995
E13   E   0.19984  0.42033  0.56995
E14   E   0.19984  0.44984  0.37500
E15   E   0.19984  0.55016  0.62500
E16   E   0.19984  0.57967  0.43005
E17   E   0.19984  0.92033  0.43005
E18   E   0.19984  0.94984  0.62500
E19   E   0.19984  0.05016  0.37500
E20   E   0.19984  0.44984  0.37500
E21   E   0.19984  0.55016  0.62500
E22   E   0.19984  0.94984  0.62500
E23   E   0.22049  0.25000  0.05505
E24   E   0.22049  0.75000  0.94495
E25   E   0.25000  0.12983  0.25000
E26   E   0.25000  0.37017  0.25000
E27   E   0.25000  0.62983  0.75000
E28   E   0.25000  0.87017  0.75000
E29   E   0.27951  0.25000  0.44495
E30   E   0.27951  0.75000  0.55505
E31   E   0.30016  0.05016  0.12500
E32   E   0.30016  0.05016  0.12500
E33   E   0.30016  0.07967  0.93005
E34   E   0.30016  0.42033  0.93005
E35   E   0.30016  0.44984  0.12500
E36   E   0.30016  0.55016  0.87500
E37   E   0.30016  0.57967  0.06995
E38   E   0.30016  0.92033  0.06995
E39   E   0.30016  0.94984  0.87500
E40   E   0.32967  0.05016  0.31995
E41   E   0.32967  0.44984  0.31995
E42   E   0.32967  0.55016  0.68005
E43   E   0.32967  0.94984  0.68005
E44   E   0.37983  0.00000  0.00000
E45   E   0.37983  0.50000  0.00000
E46   E   0.50000  0.02951  0.80505
E47   E   0.50000  0.47049  0.80505
E48   E   0.50000  0.52951  0.19495
E49   E   0.50000  0.97049  0.19495
E50   E   0.62017  0.00000  0.00000
E51   E   0.62017  0.50000  0.00000
E52   E   0.67033  0.05016  0.31995
E53   E   0.67033  0.44984  0.31995
E54   E   0.67033  0.55016  0.68005
E55   E   0.67033  0.94984  0.68005
E56   E   0.69984  0.05016  0.12500
E57   E   0.69984  0.05016  0.12500
E58   E   0.69984  0.07967  0.93005
E59   E   0.69984  0.42033  0.93005
E60   E   0.69984  0.44984  0.12500
E61   E   0.69984  0.55016  0.87500
E62   E   0.69984  0.57967  0.06995
E63   E   0.69984  0.92033  0.06995
E64   E   0.69984  0.94984  0.87500
E65   E   0.72049  0.25000  0.44495
E66   E   0.72049  0.75000  0.55505
E67   E   0.75000  0.12983  0.25000
E68   E   0.75000  0.37017  0.25000
E69   E   0.75000  0.62983  0.75000
E70   E   0.75000  0.87017  0.75000
E71   E   0.77951  0.25000  0.05505
E72   E   0.77951  0.75000  0.94495
E73   E   0.80016  0.05016  0.37500
E74   E   0.80016  0.05016  0.37500
E75   E   0.80016  0.07967  0.56995
E76   E   0.80016  0.42033  0.56995
E77   E   0.80016  0.44984  0.37500
E78   E   0.80016  0.55016  0.62500
E79   E   0.80016  0.57967  0.43005
E80   E   0.80016  0.92033  0.43005
E81   E   0.80016  0.94984  0.62500
E82   E   0.82967  0.05016  0.18005
E83   E   0.82967  0.44984  0.18005
E84   E   0.82967  0.55016  0.81995
E85   E   0.82967  0.94984  0.81995
E86   E   0.87983  0.00000  0.50000
E87   E   0.87983  0.50000  0.50000
loop_
