data_yfn_I41/acd:2  hall_number: 429, V_con: 5
_audit_creation_date              2025-03-06
_audit_creation_method            'MOFbuilder_1.0'
_symmetry_space_group_name_H-M    'P1'
_symmetry_Int_Tables_number       1
_symmetry_cell_setting            triclinic
loop_
_symmetry_equiv_pos_as_xyz
  x,y,z
_cell_length_a                    53.481500000000004
_cell_length_b                    53.481500000000004
_cell_length_c                    17.994799999999998
_cell_angle_alpha                 90.0
_cell_angle_beta                  90.0
_cell_angle_gamma                 90.0
loop_
_atom_site_label
_atom_site_type_symbol
_atom_site_fract_x
_atom_site_fract_y
_atom_site_fract_z
V1    V   0.04080  0.07773  0.09559
V2    V   0.04080  0.42227  0.59559
V3    V   0.04080  0.57773  0.90441
V4    V   0.04080  0.92227  0.40441
V5    V   0.17227  0.20920  0.15441
V6    V   0.17227  0.29080  0.65441
V7    V   0.17227  0.70920  0.84559
V8    V   0.17227  0.79080  0.34559
V9    V   0.32773  0.20920  0.84559
V10   V   0.32773  0.29080  0.34559
V11   V   0.32773  0.70920  0.15441
V12   V   0.32773  0.79080  0.65441
V13   V   0.45920  0.07773  0.90441
V14   V   0.45920  0.42227  0.40441
V15   V   0.45920  0.57773  0.09559
V16   V   0.45920  0.92227  0.59559
V17   V   0.54080  0.07773  0.40441
V18   V   0.54080  0.42227  0.90441
V19   V   0.54080  0.57773  0.59559
V20   V   0.54080  0.92227  0.09559
V21   V   0.67227  0.20920  0.34559
V22   V   0.67227  0.29080  0.84559
V23   V   0.67227  0.70920  0.65441
V24   V   0.67227  0.79080  0.15441
V25   V   0.82773  0.20920  0.65441
V26   V   0.82773  0.29080  0.15441
V27   V   0.82773  0.70920  0.34559
V28   V   0.82773  0.79080  0.84559
V29   V   0.95920  0.07773  0.59559
V30   V   0.95920  0.42227  0.09559
V31   V   0.95920  0.57773  0.40441
V32   V   0.95920  0.92227  0.90441
E1    E   0.00000  0.00000  0.00000
E2    E   0.00000  0.00000  0.50000
E3    E   0.00000  0.07773  0.34559
E4    E   0.00000  0.07773  0.84559
E5    E   0.00000  0.42227  0.34559
E6    E   0.00000  0.42227  0.84559
E7    E   0.00000  0.50000  0.00000
E8    E   0.00000  0.50000  0.50000
E9    E   0.00000  0.57773  0.15441
E10   E   0.00000  0.57773  0.65441
E11   E   0.00000  0.92227  0.15441
E12   E   0.00000  0.92227  0.65441
E13   E   0.04080  0.00000  0.25000
E14   E   0.04080  0.50000  0.75000
E15   E   0.10654  0.14346  0.12500
E16   E   0.10654  0.35654  0.62500
E17   E   0.10654  0.64346  0.87500
E18   E   0.10654  0.85654  0.37500
E19   E   0.17227  0.25000  0.40441
E20   E   0.17227  0.25000  0.90441
E21   E   0.17227  0.75000  0.09559
E22   E   0.17227  0.75000  0.59559
E23   E   0.25000  0.20920  0.00000
E24   E   0.25000  0.25000  0.25000
E25   E   0.25000  0.25000  0.75000
E26   E   0.25000  0.29080  0.50000
E27   E   0.25000  0.70920  0.00000
E28   E   0.25000  0.75000  0.25000
E29   E   0.25000  0.75000  0.75000
E30   E   0.25000  0.79080  0.50000
E31   E   0.32773  0.25000  0.09559
E32   E   0.32773  0.25000  0.59559
E33   E   0.32773  0.75000  0.40441
E34   E   0.32773  0.75000  0.90441
E35   E   0.39346  0.14346  0.87500
E36   E   0.39346  0.35654  0.37500
E37   E   0.39346  0.64346  0.12500
E38   E   0.39346  0.85654  0.62500
E39   E   0.45920  0.00000  0.75000
E40   E   0.45920  0.50000  0.25000
E41   E   0.50000  0.00000  0.00000
E42   E   0.50000  0.00000  0.50000
E43   E   0.50000  0.07773  0.15441
E44   E   0.50000  0.07773  0.65441
E45   E   0.50000  0.42227  0.15441
E46   E   0.50000  0.42227  0.65441
E47   E   0.50000  0.50000  0.00000
E48   E   0.50000  0.50000  0.50000
E49   E   0.50000  0.57773  0.34559
E50   E   0.50000  0.57773  0.84559
E51   E   0.50000  0.92227  0.34559
E52   E   0.50000  0.92227  0.84559
E53   E   0.54080  0.00000  0.25000
E54   E   0.54080  0.50000  0.75000
E55   E   0.60654  0.14346  0.37500
E56   E   0.60654  0.35654  0.87500
E57   E   0.60654  0.64346  0.62500
E58   E   0.60654  0.85654  0.12500
E59   E   0.67227  0.25000  0.09559
E60   E   0.67227  0.25000  0.59559
E61   E   0.67227  0.75000  0.40441
E62   E   0.67227  0.75000  0.90441
E63   E   0.75000  0.20920  0.50000
E64   E   0.75000  0.25000  0.25000
E65   E   0.75000  0.25000  0.75000
E66   E   0.75000  0.29080  0.00000
E67   E   0.75000  0.70920  0.50000
E68   E   0.75000  0.75000  0.25000
E69   E   0.75000  0.75000  0.75000
E70   E   0.75000  0.79080  0.00000
E71   E   0.82773  0.25000  0.40441
E72   E   0.82773  0.25000  0.90441
E73   E   0.82773  0.75000  0.09559
E74   E   0.82773  0.75000  0.59559
E75   E   0.89346  0.14346  0.62500
E76   E   0.89346  0.35654  0.12500
E77   E   0.89346  0.64346  0.37500
E78   E   0.89346  0.85654  0.87500
E79   E   0.95920  0.00000  0.75000
E80   E   0.95920  0.50000  0.25000
loop_
