data_yfq_I41/acd:2  hall_number: 429, V_con: 5
_audit_creation_date              2025-03-06
_audit_creation_method            'MOFbuilder_1.0'
_symmetry_space_group_name_H-M    'P1'
_symmetry_Int_Tables_number       1
_symmetry_cell_setting            triclinic
loop_
_symmetry_equiv_pos_as_xyz
  x,y,z
_cell_length_a                    39.3359
_cell_length_b                    39.3359
_cell_length_c                    30.5635
_cell_angle_alpha                 90.0
_cell_angle_beta                  90.0
_cell_angle_gamma                 90.0
loop_
_atom_site_label
_atom_site_type_symbol
_atom_site_fract_x
_atom_site_fract_y
_atom_site_fract_z
V1    V   0.02249  0.12490  0.99068
V2    V   0.02249  0.37510  0.49068
V3    V   0.02249  0.62490  0.00932
V4    V   0.02249  0.87510  0.50932
V5    V   0.12510  0.22751  0.25932
V6    V   0.12510  0.27249  0.75932
V7    V   0.12510  0.72751  0.74068
V8    V   0.12510  0.77249  0.24068
V9    V   0.37490  0.22751  0.74068
V10   V   0.37490  0.27249  0.24068
V11   V   0.37490  0.72751  0.25932
V12   V   0.37490  0.77249  0.75932
V13   V   0.47751  0.12490  0.00932
V14   V   0.47751  0.37510  0.50932
V15   V   0.47751  0.62490  0.99068
V16   V   0.47751  0.87510  0.49068
V17   V   0.52249  0.12490  0.50932
V18   V   0.52249  0.37510  0.00932
V19   V   0.52249  0.62490  0.49068
V20   V   0.52249  0.87510  0.99068
V21   V   0.62510  0.22751  0.24068
V22   V   0.62510  0.27249  0.74068
V23   V   0.62510  0.72751  0.75932
V24   V   0.62510  0.77249  0.25932
V25   V   0.87490  0.22751  0.75932
V26   V   0.87490  0.27249  0.25932
V27   V   0.87490  0.72751  0.24068
V28   V   0.87490  0.77249  0.74068
V29   V   0.97751  0.12490  0.49068
V30   V   0.97751  0.37510  0.99068
V31   V   0.97751  0.62490  0.50932
V32   V   0.97751  0.87510  0.00932
E1    E   0.00000  0.00000  0.00000
E2    E   0.00000  0.00000  0.50000
E3    E   0.00000  0.25000  0.25932
E4    E   0.00000  0.25000  0.49068
E5    E   0.00000  0.25000  0.75932
E6    E   0.00000  0.25000  0.99068
E7    E   0.00000  0.50000  0.00000
E8    E   0.00000  0.50000  0.50000
E9    E   0.00000  0.75000  0.00932
E10   E   0.00000  0.75000  0.24068
E11   E   0.00000  0.75000  0.50932
E12   E   0.00000  0.75000  0.74068
E13   E   0.05131  0.17620  0.37500
E14   E   0.05131  0.32380  0.87500
E15   E   0.05131  0.67620  0.62500
E16   E   0.05131  0.82380  0.12500
E17   E   0.07380  0.17620  0.12500
E18   E   0.07380  0.19869  0.87500
E19   E   0.07380  0.30131  0.37500
E20   E   0.07380  0.32380  0.62500
E21   E   0.07380  0.67620  0.87500
E22   E   0.07380  0.69869  0.12500
E23   E   0.07380  0.80131  0.62500
E24   E   0.07380  0.82380  0.37500
E25   E   0.25000  0.25000  0.25000
E26   E   0.25000  0.25000  0.75000
E27   E   0.25000  0.75000  0.25000
E28   E   0.25000  0.75000  0.75000
E29   E   0.42620  0.17620  0.87500
E30   E   0.42620  0.19869  0.12500
E31   E   0.42620  0.30131  0.62500
E32   E   0.42620  0.32380  0.37500
E33   E   0.42620  0.67620  0.12500
E34   E   0.42620  0.69869  0.87500
E35   E   0.42620  0.80131  0.37500
E36   E   0.42620  0.82380  0.62500
E37   E   0.44869  0.17620  0.62500
E38   E   0.44869  0.32380  0.12500
E39   E   0.44869  0.67620  0.37500
E40   E   0.44869  0.82380  0.87500
E41   E   0.50000  0.00000  0.00000
E42   E   0.50000  0.00000  0.50000
E43   E   0.50000  0.25000  0.00932
E44   E   0.50000  0.25000  0.24068
E45   E   0.50000  0.25000  0.50932
E46   E   0.50000  0.25000  0.74068
E47   E   0.50000  0.50000  0.00000
E48   E   0.50000  0.50000  0.50000
E49   E   0.50000  0.75000  0.25932
E50   E   0.50000  0.75000  0.49068
E51   E   0.50000  0.75000  0.75932
E52   E   0.50000  0.75000  0.99068
E53   E   0.55131  0.17620  0.12500
E54   E   0.55131  0.32380  0.62500
E55   E   0.55131  0.67620  0.87500
E56   E   0.55131  0.82380  0.37500
E57   E   0.57380  0.17620  0.37500
E58   E   0.57380  0.19869  0.62500
E59   E   0.57380  0.30131  0.12500
E60   E   0.57380  0.32380  0.87500
E61   E   0.57380  0.67620  0.62500
E62   E   0.57380  0.69869  0.37500
E63   E   0.57380  0.80131  0.87500
E64   E   0.57380  0.82380  0.12500
E65   E   0.75000  0.25000  0.25000
E66   E   0.75000  0.25000  0.75000
E67   E   0.75000  0.75000  0.25000
E68   E   0.75000  0.75000  0.75000
E69   E   0.92620  0.17620  0.62500
E70   E   0.92620  0.19869  0.37500
E71   E   0.92620  0.30131  0.87500
E72   E   0.92620  0.32380  0.12500
E73   E   0.92620  0.67620  0.37500
E74   E   0.92620  0.69869  0.62500
E75   E   0.92620  0.80131  0.12500
E76   E   0.92620  0.82380  0.87500
E77   E   0.94869  0.17620  0.87500
E78   E   0.94869  0.32380  0.37500
E79   E   0.94869  0.67620  0.12500
E80   E   0.94869  0.82380  0.62500
loop_
