data_yfs_I41/acd:2  hall_number: 429, V_con: 5
_audit_creation_date              2025-03-06
_audit_creation_method            'MOFbuilder_1.0'
_symmetry_space_group_name_H-M    'P1'
_symmetry_Int_Tables_number       1
_symmetry_cell_setting            triclinic
loop_
_symmetry_equiv_pos_as_xyz
  x,y,z
_cell_length_a                    29.2504
_cell_length_b                    29.2504
_cell_length_c                    47.5295
_cell_angle_alpha                 90.0
_cell_angle_beta                  90.0
_cell_angle_gamma                 90.0
loop_
_atom_site_label
_atom_site_type_symbol
_atom_site_fract_x
_atom_site_fract_y
_atom_site_fract_z
V1    V   0.10015  0.11147  0.44938
V2    V   0.10015  0.38853  0.94938
V3    V   0.10015  0.61147  0.55062
V4    V   0.10015  0.88853  0.05062
V5    V   0.13853  0.14985  0.80062
V6    V   0.13853  0.35015  0.30062
V7    V   0.13853  0.64985  0.19938
V8    V   0.13853  0.85015  0.69938
V9    V   0.36147  0.14985  0.19938
V10   V   0.36147  0.35015  0.69938
V11   V   0.36147  0.64985  0.80062
V12   V   0.36147  0.85015  0.30062
V13   V   0.39985  0.11147  0.55062
V14   V   0.39985  0.38853  0.05062
V15   V   0.39985  0.61147  0.44938
V16   V   0.39985  0.88853  0.94938
V17   V   0.60015  0.11147  0.05062
V18   V   0.60015  0.38853  0.55062
V19   V   0.60015  0.61147  0.94938
V20   V   0.60015  0.88853  0.44938
V21   V   0.63853  0.14985  0.69938
V22   V   0.63853  0.35015  0.19938
V23   V   0.63853  0.64985  0.30062
V24   V   0.63853  0.85015  0.80062
V25   V   0.86147  0.14985  0.30062
V26   V   0.86147  0.35015  0.80062
V27   V   0.86147  0.64985  0.69938
V28   V   0.86147  0.85015  0.19938
V29   V   0.89985  0.11147  0.94938
V30   V   0.89985  0.38853  0.44938
V31   V   0.89985  0.61147  0.05062
V32   V   0.89985  0.88853  0.55062
E1    E   0.00000  0.00000  0.00000
E2    E   0.00000  0.00000  0.50000
E3    E   0.00000  0.25000  0.30062
E4    E   0.00000  0.25000  0.44938
E5    E   0.00000  0.25000  0.80062
E6    E   0.00000  0.25000  0.94938
E7    E   0.00000  0.50000  0.00000
E8    E   0.00000  0.50000  0.50000
E9    E   0.00000  0.75000  0.05062
E10   E   0.00000  0.75000  0.19938
E11   E   0.00000  0.75000  0.55062
E12   E   0.00000  0.75000  0.69938
E13   E   0.01919  0.13066  0.87500
E14   E   0.01919  0.36934  0.37500
E15   E   0.01919  0.63066  0.12500
E16   E   0.01919  0.86934  0.62500
E17   E   0.11934  0.23081  0.37500
E18   E   0.11934  0.26919  0.87500
E19   E   0.11934  0.73081  0.62500
E20   E   0.11934  0.76919  0.12500
E21   E   0.13853  0.00000  0.75000
E22   E   0.13853  0.50000  0.25000
E23   E   0.25000  0.11147  0.50000
E24   E   0.25000  0.25000  0.25000
E25   E   0.25000  0.25000  0.75000
E26   E   0.25000  0.38853  0.00000
E27   E   0.25000  0.61147  0.50000
E28   E   0.25000  0.75000  0.25000
E29   E   0.25000  0.75000  0.75000
E30   E   0.25000  0.88853  0.00000
E31   E   0.36147  0.00000  0.25000
E32   E   0.36147  0.50000  0.75000
E33   E   0.38066  0.23081  0.62500
E34   E   0.38066  0.26919  0.12500
E35   E   0.38066  0.73081  0.37500
E36   E   0.38066  0.76919  0.87500
E37   E   0.48081  0.13066  0.12500
E38   E   0.48081  0.36934  0.62500
E39   E   0.48081  0.63066  0.87500
E40   E   0.48081  0.86934  0.37500
E41   E   0.50000  0.00000  0.00000
E42   E   0.50000  0.00000  0.50000
E43   E   0.50000  0.25000  0.05062
E44   E   0.50000  0.25000  0.19938
E45   E   0.50000  0.25000  0.55062
E46   E   0.50000  0.25000  0.69938
E47   E   0.50000  0.50000  0.00000
E48   E   0.50000  0.50000  0.50000
E49   E   0.50000  0.75000  0.30062
E50   E   0.50000  0.75000  0.44938
E51   E   0.50000  0.75000  0.80062
E52   E   0.50000  0.75000  0.94938
E53   E   0.51919  0.13066  0.62500
E54   E   0.51919  0.36934  0.12500
E55   E   0.51919  0.63066  0.37500
E56   E   0.51919  0.86934  0.87500
E57   E   0.61934  0.23081  0.12500
E58   E   0.61934  0.26919  0.62500
E59   E   0.61934  0.73081  0.87500
E60   E   0.61934  0.76919  0.37500
E61   E   0.63853  0.00000  0.75000
E62   E   0.63853  0.50000  0.25000
E63   E   0.75000  0.11147  0.00000
E64   E   0.75000  0.25000  0.25000
E65   E   0.75000  0.25000  0.75000
E66   E   0.75000  0.38853  0.50000
E67   E   0.75000  0.61147  0.00000
E68   E   0.75000  0.75000  0.25000
E69   E   0.75000  0.75000  0.75000
E70   E   0.75000  0.88853  0.50000
E71   E   0.86147  0.00000  0.25000
E72   E   0.86147  0.50000  0.75000
E73   E   0.88066  0.23081  0.87500
E74   E   0.88066  0.26919  0.37500
E75   E   0.88066  0.73081  0.12500
E76   E   0.88066  0.76919  0.62500
E77   E   0.98081  0.13066  0.37500
E78   E   0.98081  0.36934  0.87500
E79   E   0.98081  0.63066  0.62500
E80   E   0.98081  0.86934  0.12500
loop_
