data_yft_I41/acd:2  hall_number: 429, V_con: 5
_audit_creation_date              2025-03-06
_audit_creation_method            'MOFbuilder_1.0'
_symmetry_space_group_name_H-M    'P1'
_symmetry_Int_Tables_number       1
_symmetry_cell_setting            triclinic
loop_
_symmetry_equiv_pos_as_xyz
  x,y,z
_cell_length_a                    23.2517
_cell_length_b                    23.2517
_cell_length_c                    63.2286
_cell_angle_alpha                 90.0
_cell_angle_beta                  90.0
_cell_angle_gamma                 90.0
loop_
_atom_site_label
_atom_site_type_symbol
_atom_site_fract_x
_atom_site_fract_y
_atom_site_fract_z
V1    V   0.08938  0.05442  0.43092
V2    V   0.08938  0.44558  0.93092
V3    V   0.08938  0.55442  0.56908
V4    V   0.08938  0.94558  0.06908
V5    V   0.19558  0.16062  0.81908
V6    V   0.19558  0.33938  0.31908
V7    V   0.19558  0.66062  0.18092
V8    V   0.19558  0.83938  0.68092
V9    V   0.30442  0.16062  0.18092
V10   V   0.30442  0.33938  0.68092
V11   V   0.30442  0.66062  0.81908
V12   V   0.30442  0.83938  0.31908
V13   V   0.41062  0.05442  0.56908
V14   V   0.41062  0.44558  0.06908
V15   V   0.41062  0.55442  0.43092
V16   V   0.41062  0.94558  0.93092
V17   V   0.58938  0.05442  0.06908
V18   V   0.58938  0.44558  0.56908
V19   V   0.58938  0.55442  0.93092
V20   V   0.58938  0.94558  0.43092
V21   V   0.69558  0.16062  0.68092
V22   V   0.69558  0.33938  0.18092
V23   V   0.69558  0.66062  0.31908
V24   V   0.69558  0.83938  0.81908
V25   V   0.80442  0.16062  0.31908
V26   V   0.80442  0.33938  0.81908
V27   V   0.80442  0.66062  0.68092
V28   V   0.80442  0.83938  0.18092
V29   V   0.91062  0.05442  0.93092
V30   V   0.91062  0.44558  0.43092
V31   V   0.91062  0.55442  0.06908
V32   V   0.91062  0.94558  0.56908
E1    E   0.00000  0.00000  0.00000
E2    E   0.00000  0.00000  0.50000
E3    E   0.00000  0.25000  0.31908
E4    E   0.00000  0.25000  0.43092
E5    E   0.00000  0.25000  0.81908
E6    E   0.00000  0.25000  0.93092
E7    E   0.00000  0.50000  0.00000
E8    E   0.00000  0.50000  0.50000
E9    E   0.00000  0.75000  0.06908
E10   E   0.00000  0.75000  0.18092
E11   E   0.00000  0.75000  0.56908
E12   E   0.00000  0.75000  0.68092
E13   E   0.05310  0.10752  0.87500
E14   E   0.05310  0.39248  0.37500
E15   E   0.05310  0.60752  0.12500
E16   E   0.05310  0.89248  0.62500
E17   E   0.14248  0.19690  0.37500
E18   E   0.14248  0.30310  0.87500
E19   E   0.14248  0.69690  0.62500
E20   E   0.14248  0.80310  0.12500
E21   E   0.19690  0.05310  0.12500
E22   E   0.19690  0.05310  0.12500
E23   E   0.19690  0.44690  0.62500
E24   E   0.19690  0.44690  0.62500
E25   E   0.19690  0.55310  0.87500
E26   E   0.19690  0.94690  0.37500
E27   E   0.25000  0.25000  0.25000
E28   E   0.25000  0.25000  0.75000
E29   E   0.25000  0.75000  0.25000
E30   E   0.25000  0.75000  0.75000
E31   E   0.30310  0.05310  0.87500
E32   E   0.30310  0.44690  0.37500
E33   E   0.30310  0.55310  0.12500
E34   E   0.30310  0.94690  0.62500
E35   E   0.30310  0.05310  0.87500
E36   E   0.30310  0.44690  0.37500
E37   E   0.30310  0.55310  0.12500
E38   E   0.30310  0.94690  0.62500
E39   E   0.35752  0.19690  0.62500
E40   E   0.35752  0.30310  0.12500
E41   E   0.35752  0.69690  0.37500
E42   E   0.35752  0.80310  0.87500
E43   E   0.44690  0.10752  0.12500
E44   E   0.44690  0.39248  0.62500
E45   E   0.44690  0.60752  0.87500
E46   E   0.44690  0.89248  0.37500
E47   E   0.50000  0.00000  0.00000
E48   E   0.50000  0.00000  0.50000
E49   E   0.50000  0.25000  0.06908
E50   E   0.50000  0.25000  0.18092
E51   E   0.50000  0.25000  0.56908
E52   E   0.50000  0.25000  0.68092
E53   E   0.50000  0.50000  0.00000
E54   E   0.50000  0.50000  0.50000
E55   E   0.50000  0.75000  0.31908
E56   E   0.50000  0.75000  0.43092
E57   E   0.50000  0.75000  0.81908
E58   E   0.50000  0.75000  0.93092
E59   E   0.55310  0.10752  0.62500
E60   E   0.55310  0.39248  0.12500
E61   E   0.55310  0.60752  0.37500
E62   E   0.55310  0.89248  0.87500
E63   E   0.64248  0.19690  0.12500
E64   E   0.64248  0.30310  0.62500
E65   E   0.64248  0.69690  0.87500
E66   E   0.64248  0.80310  0.37500
E67   E   0.69690  0.05310  0.37500
E68   E   0.69690  0.05310  0.37500
E69   E   0.69690  0.44690  0.87500
E70   E   0.69690  0.44690  0.87500
E71   E   0.69690  0.55310  0.62500
E72   E   0.69690  0.94690  0.12500
E73   E   0.75000  0.25000  0.25000
E74   E   0.75000  0.25000  0.75000
E75   E   0.75000  0.75000  0.25000
E76   E   0.75000  0.75000  0.75000
E77   E   0.80310  0.05310  0.62500
E78   E   0.80310  0.05310  0.62500
E79   E   0.80310  0.44690  0.12500
E80   E   0.80310  0.44690  0.12500
E81   E   0.80310  0.55310  0.37500
E82   E   0.80310  0.94690  0.87500
E83   E   0.85752  0.19690  0.87500
E84   E   0.85752  0.30310  0.37500
E85   E   0.85752  0.69690  0.12500
E86   E   0.85752  0.80310  0.62500
E87   E   0.94690  0.10752  0.37500
E88   E   0.94690  0.39248  0.87500
E89   E   0.94690  0.60752  0.62500
E90   E   0.94690  0.89248  0.12500
loop_
