data_yfu_I41/acd:2  hall_number: 429, V_con: 5
_audit_creation_date              2025-03-06
_audit_creation_method            'MOFbuilder_1.0'
_symmetry_space_group_name_H-M    'P1'
_symmetry_Int_Tables_number       1
_symmetry_cell_setting            triclinic
loop_
_symmetry_equiv_pos_as_xyz
  x,y,z
_cell_length_a                    23.9845
_cell_length_b                    23.9845
_cell_length_c                    65.0362
_cell_angle_alpha                 90.0
_cell_angle_beta                  90.0
_cell_angle_gamma                 90.0
loop_
_atom_site_label
_atom_site_type_symbol
_atom_site_fract_x
_atom_site_fract_y
_atom_site_fract_z
V1    V   0.12382  0.08229  0.32064
V2    V   0.12382  0.41771  0.82064
V3    V   0.12382  0.58229  0.67936
V4    V   0.12382  0.91771  0.17936
V5    V   0.16771  0.12618  0.92936
V6    V   0.16771  0.37382  0.42936
V7    V   0.16771  0.62618  0.07064
V8    V   0.16771  0.87382  0.57064
V9    V   0.33229  0.12618  0.07064
V10   V   0.33229  0.37382  0.57064
V11   V   0.33229  0.62618  0.92936
V12   V   0.33229  0.87382  0.42936
V13   V   0.37618  0.08229  0.67936
V14   V   0.37618  0.41771  0.17936
V15   V   0.37618  0.58229  0.32064
V16   V   0.37618  0.91771  0.82064
V17   V   0.62382  0.08229  0.17936
V18   V   0.62382  0.41771  0.67936
V19   V   0.62382  0.58229  0.82064
V20   V   0.62382  0.91771  0.32064
V21   V   0.66771  0.12618  0.57064
V22   V   0.66771  0.37382  0.07064
V23   V   0.66771  0.62618  0.42936
V24   V   0.66771  0.87382  0.92936
V25   V   0.83229  0.12618  0.42936
V26   V   0.83229  0.37382  0.92936
V27   V   0.83229  0.62618  0.57064
V28   V   0.83229  0.87382  0.07064
V29   V   0.87618  0.08229  0.82064
V30   V   0.87618  0.41771  0.32064
V31   V   0.87618  0.58229  0.17936
V32   V   0.87618  0.91771  0.67936
E1    E   0.00000  0.25000  0.32064
E2    E   0.00000  0.25000  0.42936
E3    E   0.00000  0.25000  0.82064
E4    E   0.00000  0.25000  0.92936
E5    E   0.00000  0.75000  0.07064
E6    E   0.00000  0.75000  0.17936
E7    E   0.00000  0.75000  0.57064
E8    E   0.00000  0.75000  0.67936
E9    E   0.02195  0.10423  0.87500
E10   E   0.02195  0.39577  0.37500
E11   E   0.02195  0.60423  0.12500
E12   E   0.02195  0.89577  0.62500
E13   E   0.12382  0.00000  0.25000
E14   E   0.12382  0.50000  0.75000
E15   E   0.14577  0.22805  0.37500
E16   E   0.14577  0.27195  0.87500
E17   E   0.14577  0.72805  0.62500
E18   E   0.14577  0.77195  0.12500
E19   E   0.22805  0.02195  0.12500
E20   E   0.22805  0.02195  0.12500
E21   E   0.22805  0.47805  0.62500
E22   E   0.22805  0.52195  0.87500
E23   E   0.22805  0.97805  0.37500
E24   E   0.25000  0.12618  0.00000
E25   E   0.25000  0.37382  0.50000
E26   E   0.25000  0.62618  0.00000
E27   E   0.25000  0.87382  0.50000
E28   E   0.27195  0.02195  0.87500
E29   E   0.27195  0.02195  0.87500
E30   E   0.27195  0.47805  0.37500
E31   E   0.27195  0.52195  0.12500
E32   E   0.27195  0.97805  0.62500
E33   E   0.35423  0.22805  0.62500
E34   E   0.35423  0.27195  0.12500
E35   E   0.35423  0.72805  0.37500
E36   E   0.35423  0.77195  0.87500
E37   E   0.37618  0.00000  0.75000
E38   E   0.37618  0.50000  0.25000
E39   E   0.47805  0.10423  0.12500
E40   E   0.47805  0.39577  0.62500
E41   E   0.47805  0.60423  0.87500
E42   E   0.47805  0.89577  0.37500
E43   E   0.50000  0.25000  0.07064
E44   E   0.50000  0.25000  0.17936
E45   E   0.50000  0.25000  0.57064
E46   E   0.50000  0.25000  0.67936
E47   E   0.50000  0.75000  0.32064
E48   E   0.50000  0.75000  0.42936
E49   E   0.50000  0.75000  0.82064
E50   E   0.50000  0.75000  0.92936
E51   E   0.52195  0.10423  0.62500
E52   E   0.52195  0.39577  0.12500
E53   E   0.52195  0.60423  0.37500
E54   E   0.52195  0.89577  0.87500
E55   E   0.62382  0.00000  0.25000
E56   E   0.62382  0.50000  0.75000
E57   E   0.64577  0.22805  0.12500
E58   E   0.64577  0.27195  0.62500
E59   E   0.64577  0.72805  0.87500
E60   E   0.64577  0.77195  0.37500
E61   E   0.72805  0.02195  0.37500
E62   E   0.72805  0.02195  0.37500
E63   E   0.72805  0.47805  0.87500
E64   E   0.72805  0.52195  0.62500
E65   E   0.72805  0.97805  0.12500
E66   E   0.75000  0.12618  0.50000
E67   E   0.75000  0.37382  0.00000
E68   E   0.75000  0.62618  0.50000
E69   E   0.75000  0.87382  0.00000
E70   E   0.77195  0.02195  0.62500
E71   E   0.77195  0.02195  0.62500
E72   E   0.77195  0.47805  0.12500
E73   E   0.77195  0.52195  0.37500
E74   E   0.77195  0.97805  0.87500
E75   E   0.85423  0.22805  0.87500
E76   E   0.85423  0.27195  0.37500
E77   E   0.85423  0.72805  0.12500
E78   E   0.85423  0.77195  0.62500
E79   E   0.87618  0.00000  0.75000
E80   E   0.87618  0.50000  0.25000
E81   E   0.97805  0.10423  0.37500
E82   E   0.97805  0.39577  0.87500
E83   E   0.97805  0.60423  0.62500
E84   E   0.97805  0.89577  0.12500
loop_
