data_yfv_I41/acd:2  hall_number: 429, V_con: 5
_audit_creation_date              2025-03-06
_audit_creation_method            'MOFbuilder_1.0'
_symmetry_space_group_name_H-M    'P1'
_symmetry_Int_Tables_number       1
_symmetry_cell_setting            triclinic
loop_
_symmetry_equiv_pos_as_xyz
  x,y,z
_cell_length_a                    19.9697
_cell_length_b                    19.9697
_cell_length_c                    72.58449999999999
_cell_angle_alpha                 90.0
_cell_angle_beta                  90.0
_cell_angle_gamma                 90.0
loop_
_atom_site_label
_atom_site_type_symbol
_atom_site_fract_x
_atom_site_fract_y
_atom_site_fract_z
V1    V   0.12462  0.01377  0.05963
V2    V   0.12462  0.48623  0.55963
V3    V   0.12462  0.51377  0.94037
V4    V   0.12462  0.98623  0.44037
V5    V   0.23623  0.12538  0.19037
V6    V   0.23623  0.37462  0.69037
V7    V   0.23623  0.62538  0.80963
V8    V   0.23623  0.87462  0.30963
V9    V   0.26377  0.12538  0.80963
V10   V   0.26377  0.37462  0.30963
V11   V   0.26377  0.62538  0.19037
V12   V   0.26377  0.87462  0.69037
V13   V   0.37538  0.01377  0.94037
V14   V   0.37538  0.48623  0.44037
V15   V   0.37538  0.51377  0.05963
V16   V   0.37538  0.98623  0.55963
V17   V   0.62462  0.01377  0.44037
V18   V   0.62462  0.48623  0.94037
V19   V   0.62462  0.51377  0.55963
V20   V   0.62462  0.98623  0.05963
V21   V   0.73623  0.12538  0.30963
V22   V   0.73623  0.37462  0.80963
V23   V   0.73623  0.62538  0.69037
V24   V   0.73623  0.87462  0.19037
V25   V   0.76377  0.12538  0.69037
V26   V   0.76377  0.37462  0.19037
V27   V   0.76377  0.62538  0.30963
V28   V   0.76377  0.87462  0.80963
V29   V   0.87538  0.01377  0.55963
V30   V   0.87538  0.48623  0.05963
V31   V   0.87538  0.51377  0.44037
V32   V   0.87538  0.98623  0.94037
E1    E   0.00000  0.00000  0.00000
E2    E   0.00000  0.00000  0.50000
E3    E   0.00000  0.50000  0.00000
E4    E   0.00000  0.50000  0.50000
E5    E   0.12538  0.00000  0.55963
E6    E   0.12538  0.00000  0.94037
E7    E   0.12538  0.50000  0.05963
E8    E   0.12538  0.50000  0.44037
E9    E   0.18042  0.06958  0.12500
E10   E   0.18042  0.43042  0.62500
E11   E   0.18042  0.56958  0.87500
E12   E   0.18042  0.93042  0.37500
E13   E   0.23623  0.00000  0.25000
E14   E   0.23623  0.50000  0.75000
E15   E   0.25000  0.01377  0.00000
E16   E   0.25000  0.12462  0.30963
E17   E   0.25000  0.12462  0.69037
E18   E   0.25000  0.25000  0.25000
E19   E   0.25000  0.25000  0.75000
E20   E   0.25000  0.37538  0.19037
E21   E   0.25000  0.37538  0.80963
E22   E   0.25000  0.48623  0.50000
E23   E   0.25000  0.51377  0.00000
E24   E   0.25000  0.62462  0.30963
E25   E   0.25000  0.62462  0.69037
E26   E   0.25000  0.75000  0.25000
E27   E   0.25000  0.75000  0.75000
E28   E   0.25000  0.87538  0.19037
E29   E   0.25000  0.87538  0.80963
E30   E   0.25000  0.98623  0.50000
E31   E   0.26377  0.00000  0.75000
E32   E   0.26377  0.50000  0.25000
E33   E   0.31958  0.06958  0.87500
E34   E   0.31958  0.43042  0.37500
E35   E   0.31958  0.56958  0.12500
E36   E   0.31958  0.93042  0.62500
E37   E   0.37462  0.00000  0.05963
E38   E   0.37462  0.00000  0.44037
E39   E   0.37462  0.50000  0.55963
E40   E   0.37462  0.50000  0.94037
E41   E   0.50000  0.00000  0.00000
E42   E   0.50000  0.00000  0.50000
E43   E   0.50000  0.50000  0.00000
E44   E   0.50000  0.50000  0.50000
E45   E   0.62538  0.00000  0.55963
E46   E   0.62538  0.00000  0.94037
E47   E   0.62538  0.50000  0.05963
E48   E   0.62538  0.50000  0.44037
E49   E   0.68042  0.06958  0.37500
E50   E   0.68042  0.43042  0.87500
E51   E   0.68042  0.56958  0.62500
E52   E   0.68042  0.93042  0.12500
E53   E   0.73623  0.00000  0.25000
E54   E   0.73623  0.50000  0.75000
E55   E   0.75000  0.01377  0.50000
E56   E   0.75000  0.12462  0.19037
E57   E   0.75000  0.12462  0.80963
E58   E   0.75000  0.25000  0.25000
E59   E   0.75000  0.25000  0.75000
E60   E   0.75000  0.37538  0.30963
E61   E   0.75000  0.37538  0.69037
E62   E   0.75000  0.48623  0.00000
E63   E   0.75000  0.51377  0.50000
E64   E   0.75000  0.62462  0.19037
E65   E   0.75000  0.62462  0.80963
E66   E   0.75000  0.75000  0.25000
E67   E   0.75000  0.75000  0.75000
E68   E   0.75000  0.87538  0.30963
E69   E   0.75000  0.87538  0.69037
E70   E   0.75000  0.98623  0.00000
E71   E   0.76377  0.00000  0.75000
E72   E   0.76377  0.50000  0.25000
E73   E   0.81958  0.06958  0.62500
E74   E   0.81958  0.43042  0.12500
E75   E   0.81958  0.56958  0.37500
E76   E   0.81958  0.93042  0.87500
E77   E   0.87462  0.00000  0.05963
E78   E   0.87462  0.00000  0.44037
E79   E   0.87462  0.50000  0.55963
E80   E   0.87462  0.50000  0.94037
loop_
