data_yfw_I41cd  hall_number: 387, V_con: 5
_audit_creation_date              2025-03-06
_audit_creation_method            'MOFbuilder_1.0'
_symmetry_space_group_name_H-M    'P1'
_symmetry_Int_Tables_number       1
_symmetry_cell_setting            triclinic
loop_
_symmetry_equiv_pos_as_xyz
  x,y,z
_cell_length_a                    31.2473
_cell_length_b                    31.2473
_cell_length_c                    17.3924
_cell_angle_alpha                 90.0
_cell_angle_beta                  90.0
_cell_angle_gamma                 90.0
loop_
_atom_site_label
_atom_site_type_symbol
_atom_site_fract_x
_atom_site_fract_y
_atom_site_fract_z
V1    V   0.07900  0.36085  0.25000
V2    V   0.07900  0.63915  0.75000
V3    V   0.13915  0.07900  0.00000
V4    V   0.13915  0.92100  0.50000
V5    V   0.36085  0.42100  0.50000
V6    V   0.36085  0.57900  0.00000
V7    V   0.42100  0.13915  0.75000
V8    V   0.42100  0.86085  0.25000
V9    V   0.57900  0.13915  0.25000
V10   V   0.57900  0.86085  0.75000
V11   V   0.63915  0.42100  0.00000
V12   V   0.63915  0.57900  0.50000
V13   V   0.86085  0.07900  0.50000
V14   V   0.86085  0.92100  0.00000
V15   V   0.92100  0.36085  0.75000
V16   V   0.92100  0.63915  0.25000
E1    E   0.00000  0.00000  0.00000
E2    E   0.00000  0.00000  0.50000
E3    E   0.00000  0.36085  0.00000
E4    E   0.00000  0.36085  0.50000
E5    E   0.00000  0.50000  0.25000
E6    E   0.00000  0.50000  0.75000
E7    E   0.00000  0.63915  0.00000
E8    E   0.00000  0.63915  0.50000
E9    E   0.10908  0.21993  0.12500
E10   E   0.10908  0.78007  0.62500
E11   E   0.13915  0.00000  0.25000
E12   E   0.13915  0.00000  0.75000
E13   E   0.21993  0.39092  0.37500
E14   E   0.21993  0.60908  0.87500
E15   E   0.28007  0.10908  0.87500
E16   E   0.28007  0.89092  0.37500
E17   E   0.36085  0.50000  0.25000
E18   E   0.36085  0.50000  0.75000
E19   E   0.39092  0.28007  0.62500
E20   E   0.39092  0.71993  0.12500
E21   E   0.50000  0.00000  0.25000
E22   E   0.50000  0.00000  0.75000
E23   E   0.50000  0.13915  0.00000
E24   E   0.50000  0.13915  0.50000
E25   E   0.50000  0.50000  0.00000
E26   E   0.50000  0.50000  0.50000
E27   E   0.50000  0.86085  0.00000
E28   E   0.50000  0.86085  0.50000
E29   E   0.60908  0.28007  0.12500
E30   E   0.60908  0.71993  0.62500
E31   E   0.63915  0.50000  0.25000
E32   E   0.63915  0.50000  0.75000
E33   E   0.71993  0.10908  0.37500
E34   E   0.71993  0.89092  0.87500
E35   E   0.78007  0.39092  0.87500
E36   E   0.78007  0.60908  0.37500
E37   E   0.86085  0.00000  0.25000
E38   E   0.86085  0.00000  0.75000
E39   E   0.89092  0.21993  0.62500
E40   E   0.89092  0.78007  0.12500
loop_
