data_yfx_I4/m  hall_number: 363, V_con: 5
_audit_creation_date              2025-03-06
_audit_creation_method            'MOFbuilder_1.0'
_symmetry_space_group_name_H-M    'P1'
_symmetry_Int_Tables_number       1
_symmetry_cell_setting            triclinic
loop_
_symmetry_equiv_pos_as_xyz
  x,y,z
_cell_length_a                    21.1557
_cell_length_b                    21.1557
_cell_length_c                    16.8107
_cell_angle_alpha                 90.0
_cell_angle_beta                  90.0
_cell_angle_gamma                 90.0
loop_
_atom_site_label
_atom_site_type_symbol
_atom_site_fract_x
_atom_site_fract_y
_atom_site_fract_z
V1    V   0.13479  0.69414  0.50000
V2    V   0.19414  0.36521  0.00000
V3    V   0.30586  0.13479  0.50000
V4    V   0.36521  0.80586  0.00000
V5    V   0.63479  0.19414  0.00000
V6    V   0.69414  0.86521  0.50000
V7    V   0.80586  0.63479  0.00000
V8    V   0.86521  0.30586  0.50000
E1    E   0.00000  0.50000  0.00000
E2    E   0.00000  0.50000  0.50000
E3    E   0.08554  0.22032  0.50000
E4    E   0.22032  0.91446  0.50000
E5    E   0.25000  0.25000  0.25000
E6    E   0.25000  0.25000  0.75000
E7    E   0.25000  0.75000  0.25000
E8    E   0.25000  0.75000  0.75000
E9    E   0.27968  0.58554  0.00000
E10   E   0.41446  0.27968  0.00000
E11   E   0.50000  0.00000  0.00000
E12   E   0.50000  0.00000  0.50000
E13   E   0.58554  0.72032  0.00000
E14   E   0.72032  0.41446  0.00000
E15   E   0.75000  0.25000  0.25000
E16   E   0.75000  0.25000  0.75000
E17   E   0.75000  0.75000  0.25000
E18   E   0.75000  0.75000  0.75000
E19   E   0.77968  0.08554  0.50000
E20   E   0.91446  0.77968  0.50000
loop_
