data_yfy_I4/mmm  hall_number: 424, V_con: 5
_audit_creation_date              2025-03-06
_audit_creation_method            'MOFbuilder_1.0'
_symmetry_space_group_name_H-M    'P1'
_symmetry_Int_Tables_number       1
_symmetry_cell_setting            triclinic
loop_
_symmetry_equiv_pos_as_xyz
  x,y,z
_cell_length_a                    26.201
_cell_length_b                    26.201
_cell_length_c                    30.4482
_cell_angle_alpha                 90.0
_cell_angle_beta                  90.0
_cell_angle_gamma                 90.0
loop_
_atom_site_label
_atom_site_type_symbol
_atom_site_fract_x
_atom_site_fract_y
_atom_site_fract_z
V1    V   0.00000  0.26988  0.33579
V2    V   0.00000  0.26988  0.66421
V3    V   0.00000  0.73012  0.33579
V4    V   0.00000  0.73012  0.66421
V5    V   0.23012  0.50000  0.16421
V6    V   0.23012  0.50000  0.83579
V7    V   0.26988  0.00000  0.33579
V8    V   0.26988  0.00000  0.66421
V9    V   0.50000  0.23012  0.16421
V10   V   0.50000  0.23012  0.83579
V11   V   0.50000  0.76988  0.16421
V12   V   0.50000  0.76988  0.83579
V13   V   0.73012  0.00000  0.33579
V14   V   0.73012  0.00000  0.66421
V15   V   0.76988  0.50000  0.16421
V16   V   0.76988  0.50000  0.83579
E1    E   0.00000  0.26988  0.50000
E2    E   0.00000  0.73012  0.50000
E3    E   0.11506  0.38494  0.25000
E4    E   0.11506  0.38494  0.75000
E5    E   0.11506  0.61506  0.25000
E6    E   0.11506  0.61506  0.75000
E7    E   0.13494  0.13494  0.33579
E8    E   0.13494  0.13494  0.66421
E9    E   0.13494  0.86506  0.33579
E10   E   0.13494  0.86506  0.66421
E11   E   0.23012  0.50000  0.00000
E12   E   0.26988  0.00000  0.50000
E13   E   0.36506  0.36506  0.16421
E14   E   0.36506  0.36506  0.83579
E15   E   0.36506  0.63494  0.16421
E16   E   0.36506  0.63494  0.83579
E17   E   0.38494  0.11506  0.25000
E18   E   0.38494  0.11506  0.75000
E19   E   0.38494  0.88494  0.25000
E20   E   0.38494  0.88494  0.75000
E21   E   0.50000  0.23012  0.00000
E22   E   0.50000  0.76988  0.00000
E23   E   0.61506  0.11506  0.25000
E24   E   0.61506  0.11506  0.75000
E25   E   0.61506  0.88494  0.25000
E26   E   0.61506  0.88494  0.75000
E27   E   0.63494  0.36506  0.16421
E28   E   0.63494  0.36506  0.83579
E29   E   0.63494  0.63494  0.16421
E30   E   0.63494  0.63494  0.83579
E31   E   0.73012  0.00000  0.50000
E32   E   0.76988  0.50000  0.00000
E33   E   0.86506  0.13494  0.33579
E34   E   0.86506  0.13494  0.66421
E35   E   0.86506  0.86506  0.33579
E36   E   0.86506  0.86506  0.66421
E37   E   0.88494  0.38494  0.25000
E38   E   0.88494  0.38494  0.75000
E39   E   0.88494  0.61506  0.25000
E40   E   0.88494  0.61506  0.75000
loop_
