data_yyz_P6122  hall_number: 472, V_con: 4
_audit_creation_date              2025-03-06
_audit_creation_method            'MOFbuilder_1.0'
_symmetry_space_group_name_H-M    'P1'
_symmetry_Int_Tables_number       1
_symmetry_cell_setting            triclinic
loop_
_symmetry_equiv_pos_as_xyz
  x,y,z
_cell_length_a                    13.6892
_cell_length_b                    13.6892
_cell_length_c                    42.5305
_cell_angle_alpha                 90.0
_cell_angle_beta                  90.0
_cell_angle_gamma                 120.0
loop_
_atom_site_label
_atom_site_type_symbol
_atom_site_fract_x
_atom_site_fract_y
_atom_site_fract_z
V1    V   0.28430  0.59479  0.03261
V2    V   0.28430  0.68951  0.13406
V3    V   0.31049  0.59479  0.46739
V4    V   0.31049  0.71570  0.69928
V5    V   0.40521  0.68951  0.36594
V6    V   0.40521  0.71570  0.80072
V7    V   0.59479  0.28430  0.30072
V8    V   0.59479  0.31049  0.86594
V9    V   0.68951  0.28430  0.19928
V10   V   0.68951  0.40521  0.96739
V11   V   0.71570  0.31049  0.63406
V12   V   0.71570  0.40521  0.53261
E1    E   0.00000  0.48691  0.33333
E2    E   0.00000  0.48691  0.33333
E3    E   0.00000  0.51309  0.83333
E4    E   0.01309  0.45264  0.55073
E5    E   0.01309  0.56045  0.61594
E6    E   0.31050  0.65525  0.58333
E7    E   0.31050  0.65525  0.58334
E8    E   0.34475  0.65525  0.91666
E9    E   0.34475  0.65525  0.91667
E10   E   0.34475  0.68950  0.25000
E11   E   0.34475  0.68950  0.25000
E12   E   0.43955  0.45264  0.94927
E13   E   0.43955  0.98691  0.21740
E14   E   0.45264  0.01309  0.78260
E15   E   0.45264  0.43955  0.38406
E16   E   0.48691  0.00000  0.00000
E17   E   0.48691  0.48691  0.16667
E18   E   0.48691  0.00000  0.00000
E19   E   0.48691  0.48691  0.16667
E20   E   0.51309  0.00000  0.50000
E21   E   0.51309  0.51309  0.66667
E22   E   0.54736  0.56045  0.88406
E23   E   0.54736  0.98691  0.28260
E24   E   0.56045  0.01309  0.71740
E25   E   0.56045  0.54736  0.44927
E26   E   0.65525  0.31050  0.75000
E27   E   0.65525  0.31050  0.75000
E28   E   0.65525  0.34475  0.41666
E29   E   0.65525  0.34475  0.41667
E30   E   0.68950  0.34475  0.08333
E31   E   0.68950  0.34475  0.08334
E32   E   0.98691  0.43955  0.11594
E33   E   0.98691  0.54736  0.05073
loop_
