data_zbd_Cmcm  hall_number: 298, V_con: 7, EC_con: 5
_audit_creation_date              2025-03-06
_audit_creation_method            'MOFbuilder_1.0'
_symmetry_space_group_name_H-M    'P1'
_symmetry_Int_Tables_number       1
_symmetry_cell_setting            triclinic
loop_
_symmetry_equiv_pos_as_xyz
  x,y,z
_cell_length_a                    34.1274
_cell_length_b                    34.1633
_cell_length_c                    17.322599999999998
_cell_angle_alpha                 90.0
_cell_angle_beta                  90.0
_cell_angle_gamma                 90.0
loop_
_atom_site_label
_atom_site_type_symbol
_atom_site_fract_x
_atom_site_fract_y
_atom_site_fract_z
V1    V   0.14651  0.42679  0.25000
V2    V   0.14651  0.57321  0.75000
V3    V   0.35349  0.07321  0.75000
V4    V   0.35349  0.92679  0.25000
V5    V   0.64651  0.07321  0.75000
V6    V   0.64651  0.92679  0.25000
V7    V   0.85349  0.42679  0.25000
V8    V   0.85349  0.57321  0.75000
EC1    EC   0.14654  0.28059  0.75000
EC2    EC   0.14654  0.71941  0.25000
EC3    EC   0.35346  0.21941  0.25000
EC4    EC   0.35346  0.78059  0.75000
EC5    EC   0.64654  0.21941  0.25000
EC6    EC   0.64654  0.78059  0.75000
EC7    EC   0.85346  0.28059  0.75000
EC8    EC   0.85346  0.71941  0.25000
E1    E   0.00000  0.28059  0.75000
E2    E   0.00000  0.42679  0.25000
E3    E   0.00000  0.57321  0.75000
E4    E   0.00000  0.71941  0.25000
E5    E   0.14651  0.50000  0.00000
E6    E   0.14651  0.50000  0.50000
E7    E   0.14653  0.35369  0.00000
E8    E   0.14653  0.35369  0.50000
E9    E   0.14653  0.42690  0.75000
E10   E   0.14653  0.57310  0.25000
E11   E   0.14653  0.64631  0.00000
E12   E   0.14653  0.64631  0.50000
E13   E   0.24999  0.32310  0.25000
E14   E   0.24999  0.67690  0.75000
E15   E   0.25001  0.17690  0.75000
E16   E   0.25001  0.82310  0.25000
E17   E   0.35347  0.07310  0.25000
E18   E   0.35347  0.14631  0.00000
E19   E   0.35347  0.14631  0.50000
E20   E   0.35347  0.85369  0.00000
E21   E   0.35347  0.85369  0.50000
E22   E   0.35347  0.92690  0.75000
E23   E   0.35349  0.00000  0.00000
E24   E   0.35349  0.00000  0.50000
E25   E   0.50000  0.07321  0.75000
E26   E   0.50000  0.21941  0.25000
E27   E   0.50000  0.78059  0.75000
E28   E   0.50000  0.92679  0.25000
E29   E   0.64651  0.00000  0.00000
E30   E   0.64651  0.00000  0.50000
E31   E   0.64653  0.07310  0.25000
E32   E   0.64653  0.14631  0.00000
E33   E   0.64653  0.14631  0.50000
E34   E   0.64653  0.85369  0.00000
E35   E   0.64653  0.85369  0.50000
E36   E   0.64653  0.92690  0.75000
E37   E   0.74999  0.17690  0.75000
E38   E   0.74999  0.82310  0.25000
E39   E   0.75001  0.32310  0.25000
E40   E   0.75001  0.67690  0.75000
E41   E   0.85347  0.35369  0.00000
E42   E   0.85347  0.35369  0.50000
E43   E   0.85347  0.42690  0.75000
E44   E   0.85347  0.57310  0.25000
E45   E   0.85347  0.64631  0.00000
E46   E   0.85347  0.64631  0.50000
E47   E   0.85349  0.50000  0.00000
E48   E   0.85349  0.50000  0.50000
loop_
