data_zbh_Imma  hall_number: 343, V_con: 6, EC_con: 5
_audit_creation_date              2025-03-06
_audit_creation_method            'MOFbuilder_1.0'
_symmetry_space_group_name_H-M    'P1'
_symmetry_Int_Tables_number       1
_symmetry_cell_setting            triclinic
loop_
_symmetry_equiv_pos_as_xyz
  x,y,z
_cell_length_a                    30.438000000000002
_cell_length_b                    33.5792
_cell_length_c                    31.95
_cell_angle_alpha                 90.0
_cell_angle_beta                  90.0
_cell_angle_gamma                 90.0
loop_
_atom_site_label
_atom_site_type_symbol
_atom_site_fract_x
_atom_site_fract_y
_atom_site_fract_z
V1    V   0.00000  0.10026  0.38201
V2    V   0.00000  0.39974  0.38201
V3    V   0.00000  0.60026  0.61799
V4    V   0.00000  0.89974  0.61799
V5    V   0.50000  0.10026  0.11799
V6    V   0.50000  0.39974  0.11799
V7    V   0.50000  0.60026  0.88201
V8    V   0.50000  0.89974  0.88201
EC1    EC   0.17138  0.10144  0.11423
EC2    EC   0.17138  0.39856  0.11423
EC3    EC   0.17138  0.60144  0.88577
EC4    EC   0.17138  0.89856  0.88577
EC5    EC   0.32862  0.10144  0.38577
EC6    EC   0.32862  0.39856  0.38577
EC7    EC   0.32862  0.60144  0.61423
EC8    EC   0.32862  0.89856  0.61423
EC9    EC   0.67138  0.10144  0.38577
EC10   EC   0.67138  0.39856  0.38577
EC11   EC   0.67138  0.60144  0.61423
EC12   EC   0.67138  0.89856  0.61423
EC13   EC   0.82862  0.10144  0.11423
EC14   EC   0.82862  0.39856  0.11423
EC15   EC   0.82862  0.60144  0.88577
EC16   EC   0.82862  0.89856  0.88577
E1    E   0.00000  0.00000  0.50000
E2    E   0.00000  0.25000  0.38201
E3    E   0.00000  0.50000  0.50000
E4    E   0.00000  0.75000  0.61799
E5    E   0.08569  0.10085  0.24812
E6    E   0.08569  0.39915  0.24812
E7    E   0.08569  0.60085  0.75188
E8    E   0.08569  0.89915  0.75188
E9    E   0.16431  0.10085  0.38389
E10   E   0.16431  0.39915  0.38389
E11   E   0.16431  0.60085  0.61611
E12   E   0.16431  0.89915  0.61611
E13   E   0.17138  0.00000  0.00000
E14   E   0.17138  0.25000  0.11423
E15   E   0.17138  0.50000  0.00000
E16   E   0.17138  0.75000  0.88577
E17   E   0.25000  0.10144  0.25000
E18   E   0.25000  0.39856  0.25000
E19   E   0.25000  0.60144  0.75000
E20   E   0.25000  0.89856  0.75000
E21   E   0.32862  0.00000  0.50000
E22   E   0.32862  0.25000  0.38577
E23   E   0.32862  0.50000  0.50000
E24   E   0.32862  0.75000  0.61423
E25   E   0.33569  0.10085  0.11611
E26   E   0.33569  0.39915  0.11611
E27   E   0.33569  0.60085  0.88389
E28   E   0.33569  0.89915  0.88389
E29   E   0.41431  0.10085  0.25188
E30   E   0.41431  0.39915  0.25188
E31   E   0.41431  0.60085  0.74812
E32   E   0.41431  0.89915  0.74812
E33   E   0.50000  0.00000  0.00000
E34   E   0.50000  0.25000  0.11799
E35   E   0.50000  0.50000  0.00000
E36   E   0.50000  0.75000  0.88201
E37   E   0.58569  0.10085  0.25188
E38   E   0.58569  0.39915  0.25188
E39   E   0.58569  0.60085  0.74812
E40   E   0.58569  0.89915  0.74812
E41   E   0.66431  0.10085  0.11611
E42   E   0.66431  0.39915  0.11611
E43   E   0.66431  0.60085  0.88389
E44   E   0.66431  0.89915  0.88389
E45   E   0.67138  0.00000  0.50000
E46   E   0.67138  0.25000  0.38577
E47   E   0.67138  0.50000  0.50000
E48   E   0.67138  0.75000  0.61423
E49   E   0.75000  0.10144  0.25000
E50   E   0.75000  0.39856  0.25000
E51   E   0.75000  0.60144  0.75000
E52   E   0.75000  0.89856  0.75000
E53   E   0.82862  0.00000  0.00000
E54   E   0.82862  0.25000  0.11423
E55   E   0.82862  0.50000  0.00000
E56   E   0.82862  0.75000  0.88577
E57   E   0.83569  0.10085  0.38389
E58   E   0.83569  0.39915  0.38389
E59   E   0.83569  0.60085  0.61611
E60   E   0.83569  0.89915  0.61611
E61   E   0.91431  0.10085  0.24812
E62   E   0.91431  0.39915  0.24812
E63   E   0.91431  0.60085  0.75188
E64   E   0.91431  0.89915  0.75188
loop_
