data_zbw_C12/c1  hall_number: 107, V_con: 8, EC_con: 6
_audit_creation_date              2025-03-06
_audit_creation_method            'MOFbuilder_1.0'
_symmetry_space_group_name_H-M    'P1'
_symmetry_Int_Tables_number       1
_symmetry_cell_setting            triclinic
loop_
_symmetry_equiv_pos_as_xyz
  x,y,z
_cell_length_a                    29.595699999999997
_cell_length_b                    30.0139
_cell_length_c                    21.023999999999997
_cell_angle_alpha                 90.0
_cell_angle_beta                  107.9732
_cell_angle_gamma                 90.0
loop_
_atom_site_label
_atom_site_type_symbol
_atom_site_fract_x
_atom_site_fract_y
_atom_site_fract_z
V1    V   0.16871  0.03498  0.68582
V2    V   0.16871  0.46502  0.31418
V3    V   0.33129  0.03498  0.18582
V4    V   0.33129  0.46502  0.81418
V5    V   0.66871  0.53498  0.18582
V6    V   0.66871  0.96502  0.81418
V7    V   0.83129  0.53498  0.68582
V8    V   0.83129  0.96502  0.31418
EC1    EC   0.04740  0.21544  0.93426
EC2    EC   0.04740  0.28456  0.06574
EC3    EC   0.45260  0.21544  0.43426
EC4    EC   0.45260  0.28456  0.56574
EC5    EC   0.54740  0.71544  0.43426
EC6    EC   0.54740  0.78456  0.56574
EC7    EC   0.95260  0.71544  0.93426
EC8    EC   0.95260  0.78456  0.06574
E1    E   0.00000  0.03498  0.75000
E2    E   0.00000  0.21544  0.75000
E3    E   0.00000  0.28456  0.25000
E4    E   0.00000  0.46502  0.25000
E5    E   0.00000  0.53498  0.75000
E6    E   0.00000  0.71544  0.75000
E7    E   0.00000  0.78456  0.25000
E8    E   0.00000  0.96502  0.25000
E9    E   0.06065  0.59023  0.87422
E10   E   0.06065  0.62521  0.12422
E11   E   0.06065  0.87479  0.87578
E12   E   0.06065  0.90977  0.12578
E13   E   0.10805  0.09023  0.81004
E14   E   0.10805  0.12521  0.06004
E15   E   0.10805  0.37479  0.93996
E16   E   0.10805  0.40977  0.18996
E17   E   0.16871  0.00000  0.43582
E18   E   0.16871  0.50000  0.56418
E19   E   0.18935  0.15977  0.12578
E20   E   0.18935  0.34023  0.87422
E21   E   0.31065  0.15977  0.62578
E22   E   0.31065  0.34023  0.37422
E23   E   0.33129  0.00000  0.93582
E24   E   0.33129  0.50000  0.06418
E25   E   0.39195  0.09023  0.31004
E26   E   0.39195  0.12521  0.56004
E27   E   0.39195  0.37479  0.43996
E28   E   0.39195  0.40977  0.68996
E29   E   0.43935  0.59023  0.37422
E30   E   0.43935  0.62521  0.62422
E31   E   0.43935  0.87479  0.37578
E32   E   0.43935  0.90977  0.62578
E33   E   0.50000  0.03498  0.25000
E34   E   0.50000  0.21544  0.25000
E35   E   0.50000  0.28456  0.75000
E36   E   0.50000  0.46502  0.75000
E37   E   0.50000  0.53498  0.25000
E38   E   0.50000  0.71544  0.25000
E39   E   0.50000  0.78456  0.75000
E40   E   0.50000  0.96502  0.75000
E41   E   0.56065  0.09023  0.37422
E42   E   0.56065  0.12521  0.62422
E43   E   0.56065  0.37479  0.37578
E44   E   0.56065  0.40977  0.62578
E45   E   0.60805  0.59023  0.31004
E46   E   0.60805  0.62521  0.56004
E47   E   0.60805  0.87479  0.43996
E48   E   0.60805  0.90977  0.68996
E49   E   0.66871  0.00000  0.06418
E50   E   0.66871  0.50000  0.93582
E51   E   0.68935  0.65977  0.62578
E52   E   0.68935  0.84023  0.37422
E53   E   0.81065  0.65977  0.12578
E54   E   0.81065  0.84023  0.87422
E55   E   0.83129  0.00000  0.56418
E56   E   0.83129  0.50000  0.43582
E57   E   0.89195  0.59023  0.81004
E58   E   0.89195  0.62521  0.06004
E59   E   0.89195  0.87479  0.93996
E60   E   0.89195  0.90977  0.18996
E61   E   0.93935  0.09023  0.87422
E62   E   0.93935  0.12521  0.12422
E63   E   0.93935  0.37479  0.87578
E64   E   0.93935  0.40977  0.12578
loop_
