data_zbz_P4122  hall_number: 368, V_con: 5, EC_con: 4
_audit_creation_date              2025-03-06
_audit_creation_method            'MOFbuilder_1.0'
_symmetry_space_group_name_H-M    'P1'
_symmetry_Int_Tables_number       1
_symmetry_cell_setting            triclinic
loop_
_symmetry_equiv_pos_as_xyz
  x,y,z
_cell_length_a                    21.7226
_cell_length_b                    21.7226
_cell_length_c                    50.664699999999996
_cell_angle_alpha                 90.0
_cell_angle_beta                  90.0
_cell_angle_gamma                 90.0
loop_
_atom_site_label
_atom_site_type_symbol
_atom_site_fract_x
_atom_site_fract_y
_atom_site_fract_z
V1    V   0.07579  0.31702  0.80902
V2    V   0.07579  0.68298  0.69098
V3    V   0.31702  0.07579  0.94098
V4    V   0.31702  0.92421  0.55902
V5    V   0.68298  0.07579  0.05902
V6    V   0.68298  0.92421  0.44098
V7    V   0.92421  0.31702  0.19098
V8    V   0.92421  0.68298  0.30902
EC1    EC   0.33054  0.35484  0.09843
EC2    EC   0.33054  0.64516  0.40157
EC3    EC   0.35484  0.33054  0.65157
EC4    EC   0.35484  0.66946  0.84843
EC5    EC   0.64516  0.33054  0.34843
EC6    EC   0.64516  0.66946  0.15157
EC7    EC   0.66946  0.35484  0.90157
EC8    EC   0.66946  0.64516  0.59843
E1    E   0.07579  0.50000  0.75000
E2    E   0.12737  0.33593  0.14471
E3    E   0.12737  0.66407  0.35529
E4    E   0.19640  0.19640  0.87500
E5    E   0.19640  0.80360  0.62500
E6    E   0.19640  0.19640  0.87500
E7    E   0.19640  0.80360  0.62500
E8    E   0.21532  0.32378  0.73029
E9    E   0.21532  0.49324  0.82873
E10   E   0.21532  0.50676  0.67127
E11   E   0.21532  0.67622  0.76971
E12   E   0.32378  0.21532  0.01971
E13   E   0.32378  0.78468  0.48029
E14   E   0.33593  0.12737  0.60529
E15   E   0.33593  0.87263  0.89471
E16   E   0.48785  0.48785  0.37500
E17   E   0.48785  0.51215  0.12500
E18   E   0.49324  0.21532  0.92127
E19   E   0.49324  0.78468  0.57873
E20   E   0.50000  0.07579  0.00000
E21   E   0.50000  0.92421  0.50000
E22   E   0.50676  0.21532  0.07873
E23   E   0.50676  0.78468  0.42127
E24   E   0.51215  0.48785  0.62500
E25   E   0.51215  0.51215  0.87500
E26   E   0.66407  0.12737  0.39471
E27   E   0.66407  0.87263  0.10529
E28   E   0.67622  0.21532  0.98029
E29   E   0.67622  0.78468  0.51971
E30   E   0.78468  0.32378  0.26971
E31   E   0.78468  0.49324  0.17127
E32   E   0.78468  0.50676  0.32873
E33   E   0.78468  0.67622  0.23029
E34   E   0.80360  0.19640  0.12500
E35   E   0.80360  0.19640  0.12500
E36   E   0.80360  0.80360  0.37500
E37   E   0.87263  0.33593  0.85529
E38   E   0.87263  0.66407  0.64471
E39   E   0.92421  0.50000  0.25000
loop_
