data_zfa_P42212  hall_number: 371, V_con: 5
_audit_creation_date              2025-03-06
_audit_creation_method            'MOFbuilder_1.0'
_symmetry_space_group_name_H-M    'P1'
_symmetry_Int_Tables_number       1
_symmetry_cell_setting            triclinic
loop_
_symmetry_equiv_pos_as_xyz
  x,y,z
_cell_length_a                    18.1917
_cell_length_b                    18.1917
_cell_length_c                    27.0503
_cell_angle_alpha                 90.0
_cell_angle_beta                  90.0
_cell_angle_gamma                 90.0
loop_
_atom_site_label
_atom_site_type_symbol
_atom_site_fract_x
_atom_site_fract_y
_atom_site_fract_z
V1    V   0.11421  0.25000  0.32681
V2    V   0.25000  0.11421  0.67319
V3    V   0.25000  0.61421  0.82681
V4    V   0.38579  0.75000  0.17319
V5    V   0.61421  0.25000  0.17319
V6    V   0.75000  0.38579  0.82681
V7    V   0.75000  0.88579  0.67319
V8    V   0.88579  0.75000  0.32681
E1    E   0.00000  0.00000  0.32681
E2    E   0.00000  0.00000  0.67319
E3    E   0.00000  0.50000  0.32681
E4    E   0.00000  0.50000  0.82681
E5    E   0.13579  0.75000  0.25000
E6    E   0.18210  0.18210  0.50000
E7    E   0.25000  0.36421  0.75000
E8    E   0.25000  0.86421  0.75000
E9    E   0.31790  0.68210  0.00000
E10   E   0.36421  0.25000  0.25000
E11   E   0.50000  0.00000  0.17319
E12   E   0.50000  0.00000  0.67319
E13   E   0.50000  0.50000  0.17319
E14   E   0.50000  0.50000  0.82681
E15   E   0.63579  0.75000  0.25000
E16   E   0.68210  0.31790  0.00000
E17   E   0.75000  0.13579  0.75000
E18   E   0.75000  0.63579  0.75000
E19   E   0.81790  0.81790  0.50000
E20   E   0.86421  0.25000  0.25000
loop_
