data_zfb_P42/mbc  hall_number: 418, V_con: 5
_audit_creation_date              2025-03-06
_audit_creation_method            'MOFbuilder_1.0'
_symmetry_space_group_name_H-M    'P1'
_symmetry_Int_Tables_number       1
_symmetry_cell_setting            triclinic
loop_
_symmetry_equiv_pos_as_xyz
  x,y,z
_cell_length_a                    19.7083
_cell_length_b                    19.7083
_cell_length_c                    19.7192
_cell_angle_alpha                 90.0
_cell_angle_beta                  90.0
_cell_angle_gamma                 90.0
loop_
_atom_site_label
_atom_site_type_symbol
_atom_site_fract_x
_atom_site_fract_y
_atom_site_fract_z
V1    V   0.14692  0.29317  0.50000
V2    V   0.20683  0.35308  0.00000
V3    V   0.29317  0.85308  0.00000
V4    V   0.35308  0.79317  0.50000
V5    V   0.64692  0.20683  0.50000
V6    V   0.70683  0.14692  0.00000
V7    V   0.79317  0.64692  0.00000
V8    V   0.85308  0.70683  0.50000
E1    E   0.00000  0.50000  0.00000
E2    E   0.00000  0.50000  0.50000
E3    E   0.10308  0.75000  0.50000
E4    E   0.17688  0.32312  0.25000
E5    E   0.17688  0.32312  0.75000
E6    E   0.17688  0.32312  0.25000
E7    E   0.17688  0.32312  0.75000
E8    E   0.25000  0.10308  0.00000
E9    E   0.25000  0.60308  0.00000
E10   E   0.32312  0.82312  0.25000
E11   E   0.32312  0.82312  0.75000
E12   E   0.32312  0.82312  0.25000
E13   E   0.32312  0.82312  0.75000
E14   E   0.39692  0.25000  0.50000
E15   E   0.50000  0.00000  0.00000
E16   E   0.50000  0.00000  0.50000
E17   E   0.60308  0.75000  0.50000
E18   E   0.67688  0.17688  0.25000
E19   E   0.67688  0.17688  0.75000
E20   E   0.67688  0.17688  0.25000
E21   E   0.67688  0.17688  0.75000
E22   E   0.75000  0.39692  0.00000
E23   E   0.75000  0.89692  0.00000
E24   E   0.82312  0.67688  0.25000
E25   E   0.82312  0.67688  0.75000
E26   E   0.82312  0.67688  0.25000
E27   E   0.82312  0.67688  0.75000
E28   E   0.89692  0.25000  0.50000
loop_
