data_zfd_I4/mcm  hall_number: 425, V_con: 5
_audit_creation_date              2025-03-06
_audit_creation_method            'MOFbuilder_1.0'
_symmetry_space_group_name_H-M    'P1'
_symmetry_Int_Tables_number       1
_symmetry_cell_setting            triclinic
loop_
_symmetry_equiv_pos_as_xyz
  x,y,z
_cell_length_a                    39.695299999999996
_cell_length_b                    39.695299999999996
_cell_length_c                    13.264199999999999
_cell_angle_alpha                 90.0
_cell_angle_beta                  90.0
_cell_angle_gamma                 90.0
loop_
_atom_site_label
_atom_site_type_symbol
_atom_site_fract_x
_atom_site_fract_y
_atom_site_fract_z
V1    V   0.09427  0.22759  0.00000
V2    V   0.09427  0.77241  0.50000
V3    V   0.22759  0.09427  0.50000
V4    V   0.22759  0.90573  0.00000
V5    V   0.27241  0.40573  0.00000
V6    V   0.27241  0.59427  0.50000
V7    V   0.40573  0.27241  0.50000
V8    V   0.40573  0.72759  0.00000
V9    V   0.59427  0.27241  0.00000
V10   V   0.59427  0.72759  0.50000
V11   V   0.72759  0.40573  0.50000
V12   V   0.72759  0.59427  0.00000
V13   V   0.77241  0.09427  0.00000
V14   V   0.77241  0.90573  0.50000
V15   V   0.90573  0.22759  0.50000
V16   V   0.90573  0.77241  0.00000
E1    E   0.00000  0.22759  0.25000
E2    E   0.00000  0.22759  0.75000
E3    E   0.00000  0.77241  0.25000
E4    E   0.00000  0.77241  0.75000
E5    E   0.16093  0.16093  0.25000
E6    E   0.16093  0.16093  0.75000
E7    E   0.16093  0.83907  0.25000
E8    E   0.16093  0.83907  0.75000
E9    E   0.18334  0.31666  0.00000
E10   E   0.18334  0.68334  0.50000
E11   E   0.22759  0.00000  0.25000
E12   E   0.22759  0.00000  0.75000
E13   E   0.27241  0.50000  0.25000
E14   E   0.27241  0.50000  0.75000
E15   E   0.31666  0.18334  0.50000
E16   E   0.31666  0.81666  0.00000
E17   E   0.33907  0.33907  0.25000
E18   E   0.33907  0.33907  0.75000
E19   E   0.33907  0.66093  0.25000
E20   E   0.33907  0.66093  0.75000
E21   E   0.50000  0.27241  0.25000
E22   E   0.50000  0.27241  0.75000
E23   E   0.50000  0.72759  0.25000
E24   E   0.50000  0.72759  0.75000
E25   E   0.66093  0.33907  0.25000
E26   E   0.66093  0.33907  0.75000
E27   E   0.66093  0.66093  0.25000
E28   E   0.66093  0.66093  0.75000
E29   E   0.68334  0.18334  0.00000
E30   E   0.68334  0.81666  0.50000
E31   E   0.72759  0.50000  0.25000
E32   E   0.72759  0.50000  0.75000
E33   E   0.77241  0.00000  0.25000
E34   E   0.77241  0.00000  0.75000
E35   E   0.81666  0.31666  0.50000
E36   E   0.81666  0.68334  0.00000
E37   E   0.83907  0.16093  0.25000
E38   E   0.83907  0.16093  0.75000
E39   E   0.83907  0.83907  0.25000
E40   E   0.83907  0.83907  0.75000
loop_
