data_zff_I422  hall_number: 374, V_con: 5
_audit_creation_date              2025-03-06
_audit_creation_method            'MOFbuilder_1.0'
_symmetry_space_group_name_H-M    'P1'
_symmetry_Int_Tables_number       1
_symmetry_cell_setting            triclinic
loop_
_symmetry_equiv_pos_as_xyz
  x,y,z
_cell_length_a                    23.904899999999998
_cell_length_b                    23.904899999999998
_cell_length_c                    36.0181
_cell_angle_alpha                 90.0
_cell_angle_beta                  90.0
_cell_angle_gamma                 90.0
loop_
_atom_site_label
_atom_site_type_symbol
_atom_site_fract_x
_atom_site_fract_y
_atom_site_fract_z
V1    V   0.03477  0.29375  0.36311
V2    V   0.03477  0.70625  0.63689
V3    V   0.20625  0.46523  0.13689
V4    V   0.20625  0.53477  0.86311
V5    V   0.29375  0.03477  0.63689
V6    V   0.29375  0.96523  0.36311
V7    V   0.46523  0.20625  0.86311
V8    V   0.46523  0.79375  0.13689
V9    V   0.53477  0.20625  0.13689
V10   V   0.53477  0.79375  0.86311
V11   V   0.70625  0.03477  0.36311
V12   V   0.70625  0.96523  0.63689
V13   V   0.79375  0.46523  0.86311
V14   V   0.79375  0.53477  0.13689
V15   V   0.96523  0.29375  0.63689
V16   V   0.96523  0.70625  0.36311
E1    E   0.00000  0.29375  0.50000
E2    E   0.00000  0.50000  0.13689
E3    E   0.00000  0.50000  0.36311
E4    E   0.00000  0.50000  0.63689
E5    E   0.00000  0.50000  0.86311
E6    E   0.00000  0.70625  0.50000
E7    E   0.12051  0.37949  0.25000
E8    E   0.12051  0.62051  0.75000
E9    E   0.12949  0.16426  0.63689
E10   E   0.12949  0.83574  0.36311
E11   E   0.16426  0.12949  0.36311
E12   E   0.16426  0.87051  0.63689
E13   E   0.20625  0.50000  0.00000
E14   E   0.29375  0.00000  0.50000
E15   E   0.33574  0.37051  0.86311
E16   E   0.33574  0.62949  0.13689
E17   E   0.37051  0.33574  0.13689
E18   E   0.37051  0.66426  0.86311
E19   E   0.37949  0.12051  0.75000
E20   E   0.37949  0.87949  0.25000
E21   E   0.50000  0.00000  0.13689
E22   E   0.50000  0.00000  0.36311
E23   E   0.50000  0.00000  0.63689
E24   E   0.50000  0.00000  0.86311
E25   E   0.50000  0.20625  0.00000
E26   E   0.50000  0.79375  0.00000
E27   E   0.62051  0.12051  0.25000
E28   E   0.62051  0.87949  0.75000
E29   E   0.62949  0.33574  0.86311
E30   E   0.62949  0.66426  0.13689
E31   E   0.66426  0.37051  0.13689
E32   E   0.66426  0.62949  0.86311
E33   E   0.70625  0.00000  0.50000
E34   E   0.79375  0.50000  0.00000
E35   E   0.83574  0.12949  0.63689
E36   E   0.83574  0.87051  0.36311
E37   E   0.87051  0.16426  0.36311
E38   E   0.87051  0.83574  0.63689
E39   E   0.87949  0.37949  0.75000
E40   E   0.87949  0.62051  0.25000
loop_
