data_zfl_P42/nbc:2  hall_number: 415, V_con: 5
_audit_creation_date              2025-03-06
_audit_creation_method            'MOFbuilder_1.0'
_symmetry_space_group_name_H-M    'P1'
_symmetry_Int_Tables_number       1
_symmetry_cell_setting            triclinic
loop_
_symmetry_equiv_pos_as_xyz
  x,y,z
_cell_length_a                    19.6389
_cell_length_b                    19.6389
_cell_length_c                    36.5271
_cell_angle_alpha                 90.0
_cell_angle_beta                  90.0
_cell_angle_gamma                 90.0
loop_
_atom_site_label
_atom_site_type_symbol
_atom_site_fract_x
_atom_site_fract_y
_atom_site_fract_z
V1    V   0.04817  0.59481  0.87563
V2    V   0.04817  0.90519  0.12437
V3    V   0.09481  0.54817  0.37563
V4    V   0.09481  0.95183  0.62437
V5    V   0.40519  0.54817  0.62437
V6    V   0.40519  0.95183  0.37563
V7    V   0.45183  0.59481  0.12437
V8    V   0.45183  0.90519  0.87563
V9    V   0.54817  0.09481  0.12437
V10   V   0.54817  0.40519  0.87563
V11   V   0.59481  0.04817  0.62437
V12   V   0.59481  0.45183  0.37563
V13   V   0.90519  0.04817  0.37563
V14   V   0.90519  0.45183  0.62437
V15   V   0.95183  0.09481  0.87563
V16   V   0.95183  0.40519  0.12437
E1    E   0.00000  0.00000  0.00000
E2    E   0.00000  0.00000  0.50000
E3    E   0.00000  0.15519  0.12437
E4    E   0.00000  0.34481  0.87563
E5    E   0.00000  0.50000  0.00000
E6    E   0.00000  0.50000  0.50000
E7    E   0.00000  0.65519  0.12437
E8    E   0.00000  0.84481  0.87563
E9    E   0.02332  0.02332  0.75000
E10   E   0.02332  0.47668  0.25000
E11   E   0.02332  0.02332  0.75000
E12   E   0.02332  0.47668  0.25000
E13   E   0.15519  0.00000  0.37563
E14   E   0.15519  0.50000  0.62437
E15   E   0.25000  0.75000  0.12437
E16   E   0.25000  0.75000  0.37563
E17   E   0.25000  0.75000  0.62437
E18   E   0.25000  0.75000  0.87563
E19   E   0.34481  0.00000  0.62437
E20   E   0.34481  0.50000  0.37563
E21   E   0.47668  0.02332  0.25000
E22   E   0.47668  0.02332  0.25000
E23   E   0.47668  0.47668  0.75000
E24   E   0.50000  0.00000  0.00000
E25   E   0.50000  0.00000  0.50000
E26   E   0.50000  0.15519  0.87563
E27   E   0.50000  0.34481  0.12437
E28   E   0.50000  0.50000  0.00000
E29   E   0.50000  0.50000  0.50000
E30   E   0.50000  0.65519  0.87563
E31   E   0.50000  0.84481  0.12437
E32   E   0.52332  0.52332  0.25000
E33   E   0.52332  0.97668  0.75000
E34   E   0.65519  0.00000  0.37563
E35   E   0.65519  0.50000  0.62437
E36   E   0.75000  0.25000  0.12437
E37   E   0.75000  0.25000  0.37563
E38   E   0.75000  0.25000  0.62437
E39   E   0.75000  0.25000  0.87563
E40   E   0.84481  0.00000  0.62437
E41   E   0.84481  0.50000  0.37563
E42   E   0.97668  0.52332  0.75000
E43   E   0.97668  0.97668  0.25000
loop_
