data_zfn_P42/nnm:2  hall_number: 417, V_con: 5
_audit_creation_date              2025-03-06
_audit_creation_method            'MOFbuilder_1.0'
_symmetry_space_group_name_H-M    'P1'
_symmetry_Int_Tables_number       1
_symmetry_cell_setting            triclinic
loop_
_symmetry_equiv_pos_as_xyz
  x,y,z
_cell_length_a                    47.2306
_cell_length_b                    47.2306
_cell_length_c                    10.0
_cell_angle_alpha                 90.0
_cell_angle_beta                  90.0
_cell_angle_gamma                 90.0
loop_
_atom_site_label
_atom_site_type_symbol
_atom_site_fract_x
_atom_site_fract_y
_atom_site_fract_z
V1    V   0.00326  0.14646  0.35411
V2    V   0.00326  0.35354  0.14589
V3    V   0.14646  0.00326  0.64589
V4    V   0.14646  0.49674  0.85411
V5    V   0.35354  0.00326  0.85411
V6    V   0.35354  0.49674  0.64589
V7    V   0.49674  0.14646  0.14589
V8    V   0.49674  0.35354  0.35411
V9    V   0.50326  0.64646  0.64589
V10   V   0.50326  0.85354  0.85411
V11   V   0.64646  0.50326  0.35411
V12   V   0.64646  0.99674  0.14589
V13   V   0.85354  0.50326  0.14589
V14   V   0.85354  0.99674  0.35411
V15   V   0.99674  0.64646  0.85411
V16   V   0.99674  0.85354  0.64589
E1    E   0.00326  0.14646  0.85411
E2    E   0.00326  0.25000  0.25000
E3    E   0.00326  0.35354  0.64589
E4    E   0.07160  0.57160  0.85411
E5    E   0.07160  0.92840  0.64589
E6    E   0.07486  0.07486  0.50000
E7    E   0.07486  0.42514  0.00000
E8    E   0.07486  0.07486  0.50000
E9    E   0.07486  0.42514  0.00000
E10   E   0.14646  0.00326  0.14589
E11   E   0.14646  0.49674  0.35411
E12   E   0.25000  0.00326  0.75000
E13   E   0.25000  0.49674  0.75000
E14   E   0.35354  0.00326  0.35411
E15   E   0.35354  0.49674  0.14589
E16   E   0.42514  0.07486  0.00000
E17   E   0.42514  0.07486  0.00000
E18   E   0.42514  0.42514  0.50000
E19   E   0.42840  0.57160  0.64589
E20   E   0.42840  0.92840  0.85411
E21   E   0.49674  0.14646  0.64589
E22   E   0.49674  0.25000  0.25000
E23   E   0.49674  0.35354  0.85411
E24   E   0.50326  0.64646  0.14589
E25   E   0.50326  0.75000  0.75000
E26   E   0.50326  0.85354  0.35411
E27   E   0.57160  0.07160  0.14589
E28   E   0.57160  0.42840  0.35411
E29   E   0.57486  0.57486  0.50000
E30   E   0.57486  0.92514  0.00000
E31   E   0.57486  0.57486  0.50000
E32   E   0.57486  0.92514  0.00000
E33   E   0.64646  0.50326  0.85411
E34   E   0.64646  0.99674  0.64589
E35   E   0.75000  0.50326  0.25000
E36   E   0.75000  0.99674  0.25000
E37   E   0.85354  0.50326  0.64589
E38   E   0.85354  0.99674  0.85411
E39   E   0.92514  0.57486  0.00000
E40   E   0.92514  0.92514  0.50000
E41   E   0.92514  0.57486  0.00000
E42   E   0.92514  0.92514  0.50000
E43   E   0.92840  0.07160  0.35411
E44   E   0.92840  0.42840  0.14589
E45   E   0.99674  0.64646  0.35411
E46   E   0.99674  0.75000  0.75000
E47   E   0.99674  0.85354  0.14589
loop_
