data_zft_P41212  hall_number: 369, V_con: 5
_audit_creation_date              2025-03-06
_audit_creation_method            'MOFbuilder_1.0'
_symmetry_space_group_name_H-M    'P1'
_symmetry_Int_Tables_number       1
_symmetry_cell_setting            triclinic
loop_
_symmetry_equiv_pos_as_xyz
  x,y,z
_cell_length_a                    16.4686
_cell_length_b                    16.4686
_cell_length_c                    32.1772
_cell_angle_alpha                 90.0
_cell_angle_beta                  90.0
_cell_angle_gamma                 90.0
loop_
_atom_site_label
_atom_site_type_symbol
_atom_site_fract_x
_atom_site_fract_y
_atom_site_fract_z
V1    V   0.10017  0.26542  0.16851
V2    V   0.23458  0.60017  0.41851
V3    V   0.26542  0.10017  0.83149
V4    V   0.39983  0.76542  0.08149
V5    V   0.60017  0.23458  0.58149
V6    V   0.73458  0.89983  0.33149
V7    V   0.76542  0.39983  0.91851
V8    V   0.89983  0.73458  0.66851
E1    E   0.01542  0.25000  0.87500
E2    E   0.06720  0.66737  0.54351
E3    E   0.08263  0.91737  0.75000
E4    E   0.16737  0.43280  0.29351
E5    E   0.25000  0.01542  0.12500
E6    E   0.25000  0.51542  0.12500
E7    E   0.33263  0.93280  0.95649
E8    E   0.41737  0.41737  0.50000
E9    E   0.43280  0.16737  0.70649
E10   E   0.48458  0.75000  0.37500
E11   E   0.51542  0.25000  0.87500
E12   E   0.56720  0.83263  0.20649
E13   E   0.58263  0.58263  0.00000
E14   E   0.66737  0.06720  0.45649
E15   E   0.75000  0.48458  0.62500
E16   E   0.75000  0.98458  0.62500
E17   E   0.83263  0.56720  0.79351
E18   E   0.91737  0.08263  0.25000
E19   E   0.93280  0.33263  0.04351
E20   E   0.98458  0.75000  0.37500
loop_
