data_zfu_P41212  hall_number: 369, V_con: 5
_audit_creation_date              2025-03-06
_audit_creation_method            'MOFbuilder_1.0'
_symmetry_space_group_name_H-M    'P1'
_symmetry_Int_Tables_number       1
_symmetry_cell_setting            triclinic
loop_
_symmetry_equiv_pos_as_xyz
  x,y,z
_cell_length_a                    23.9039
_cell_length_b                    23.9039
_cell_length_c                    16.0796
_cell_angle_alpha                 90.0
_cell_angle_beta                  90.0
_cell_angle_gamma                 90.0
loop_
_atom_site_label
_atom_site_type_symbol
_atom_site_fract_x
_atom_site_fract_y
_atom_site_fract_z
V1    V   0.05995  0.23586  0.25000
V2    V   0.23586  0.05995  0.75000
V3    V   0.26414  0.55995  0.50000
V4    V   0.44005  0.73586  0.00000
V5    V   0.55995  0.26414  0.50000
V6    V   0.73586  0.44005  0.00000
V7    V   0.76414  0.94005  0.25000
V8    V   0.94005  0.76414  0.75000
E1    E   0.08795  0.91205  0.75000
E2    E   0.10209  0.66205  0.62500
E3    E   0.14791  0.14791  0.00000
E4    E   0.14791  0.14791  0.50000
E5    E   0.16205  0.39791  0.37500
E6    E   0.33795  0.89791  0.87500
E7    E   0.35209  0.64791  0.25000
E8    E   0.35209  0.64791  0.75000
E9    E   0.39791  0.16205  0.62500
E10   E   0.41205  0.41205  0.50000
E11   E   0.58795  0.58795  0.00000
E12   E   0.60209  0.83795  0.12500
E13   E   0.64791  0.35209  0.25000
E14   E   0.64791  0.35209  0.75000
E15   E   0.66205  0.10209  0.37500
E16   E   0.83795  0.60209  0.87500
E17   E   0.85209  0.85209  0.00000
E18   E   0.85209  0.85209  0.50000
E19   E   0.89791  0.33795  0.12500
E20   E   0.91205  0.08795  0.25000
loop_
