data_zfv_I41/amd:2  hall_number: 427, V_con: 5
_audit_creation_date              2025-03-06
_audit_creation_method            'MOFbuilder_1.0'
_symmetry_space_group_name_H-M    'P1'
_symmetry_Int_Tables_number       1
_symmetry_cell_setting            triclinic
loop_
_symmetry_equiv_pos_as_xyz
  x,y,z
_cell_length_a                    47.9164
_cell_length_b                    47.9164
_cell_length_c                    10.0
_cell_angle_alpha                 90.0
_cell_angle_beta                  90.0
_cell_angle_gamma                 90.0
loop_
_atom_site_label
_atom_site_type_symbol
_atom_site_fract_x
_atom_site_fract_y
_atom_site_fract_z
V1    V   0.00000  0.10320  0.92615
V2    V   0.00000  0.39680  0.92615
V3    V   0.00000  0.60320  0.07385
V4    V   0.00000  0.89680  0.07385
V5    V   0.14680  0.25000  0.82385
V6    V   0.14680  0.75000  0.17615
V7    V   0.35320  0.25000  0.67615
V8    V   0.35320  0.75000  0.32385
V9    V   0.50000  0.10320  0.57385
V10   V   0.50000  0.39680  0.57385
V11   V   0.50000  0.60320  0.42615
V12   V   0.50000  0.89680  0.42615
V13   V   0.64680  0.25000  0.67615
V14   V   0.64680  0.75000  0.32385
V15   V   0.85320  0.25000  0.82385
V16   V   0.85320  0.75000  0.17615
E1    E   0.00000  0.00000  0.00000
E2    E   0.00000  0.10320  0.42615
E3    E   0.00000  0.39680  0.42615
E4    E   0.00000  0.50000  0.00000
E5    E   0.00000  0.60320  0.57385
E6    E   0.00000  0.89680  0.57385
E7    E   0.07340  0.17660  0.87500
E8    E   0.07340  0.32340  0.87500
E9    E   0.07340  0.67660  0.12500
E10   E   0.07340  0.82340  0.12500
E11   E   0.07340  0.17660  0.87500
E12   E   0.07340  0.32340  0.87500
E13   E   0.07340  0.67660  0.12500
E14   E   0.07340  0.82340  0.12500
E15   E   0.14680  0.25000  0.32385
E16   E   0.14680  0.75000  0.67615
E17   E   0.25000  0.25000  0.75000
E18   E   0.25000  0.75000  0.25000
E19   E   0.35320  0.25000  0.17615
E20   E   0.35320  0.75000  0.82385
E21   E   0.42660  0.17660  0.62500
E22   E   0.42660  0.32340  0.62500
E23   E   0.42660  0.67660  0.37500
E24   E   0.42660  0.82340  0.37500
E25   E   0.42660  0.17660  0.62500
E26   E   0.42660  0.32340  0.62500
E27   E   0.42660  0.67660  0.37500
E28   E   0.42660  0.82340  0.37500
E29   E   0.50000  0.00000  0.50000
E30   E   0.50000  0.10320  0.07385
E31   E   0.50000  0.39680  0.07385
E32   E   0.50000  0.50000  0.50000
E33   E   0.50000  0.60320  0.92615
E34   E   0.50000  0.89680  0.92615
E35   E   0.57340  0.17660  0.62500
E36   E   0.57340  0.17660  0.62500
E37   E   0.57340  0.32340  0.62500
E38   E   0.57340  0.67660  0.37500
E39   E   0.57340  0.82340  0.37500
E40   E   0.64680  0.25000  0.17615
E41   E   0.64680  0.75000  0.82385
E42   E   0.75000  0.25000  0.75000
E43   E   0.75000  0.75000  0.25000
E44   E   0.85320  0.25000  0.32385
E45   E   0.85320  0.75000  0.67615
E46   E   0.92660  0.17660  0.87500
E47   E   0.92660  0.17660  0.87500
E48   E   0.92660  0.32340  0.87500
E49   E   0.92660  0.67660  0.12500
E50   E   0.92660  0.82340  0.12500
loop_
