data_zfz_P3221  hall_number: 443, V_con: 5
_audit_creation_date              2025-03-06
_audit_creation_method            'MOFbuilder_1.0'
_symmetry_space_group_name_H-M    'P1'
_symmetry_Int_Tables_number       1
_symmetry_cell_setting            triclinic
loop_
_symmetry_equiv_pos_as_xyz
  x,y,z
_cell_length_a                    19.630399999999998
_cell_length_b                    19.630399999999998
_cell_length_c                    26.714000000000002
_cell_angle_alpha                 90.0
_cell_angle_beta                  90.0
_cell_angle_gamma                 120.0
loop_
_atom_site_label
_atom_site_type_symbol
_atom_site_fract_x
_atom_site_fract_y
_atom_site_fract_z
V1    V   0.19908  0.53326  0.19556
V2    V   0.33418  0.80092  0.52889
V3    V   0.46674  0.66582  0.86223
V4    V   0.53326  0.19908  0.80444
V5    V   0.66582  0.46674  0.13777
V6    V   0.80092  0.33418  0.47111
E1    E   0.00000  0.43371  0.33333
E2    E   0.00000  0.43371  0.33334
E3    E   0.06754  0.56754  0.50000
E4    E   0.26663  0.66709  0.36222
E5    E   0.33291  0.59954  0.02889
E6    E   0.40046  0.73337  0.69556
E7    E   0.43246  0.50000  0.16667
E8    E   0.43371  0.00000  0.66666
E9    E   0.43371  0.00000  0.66667
E10   E   0.50000  0.43246  0.83333
E11   E   0.50000  0.93246  0.83334
E12   E   0.56629  0.56629  0.00000
E13   E   0.56629  0.56629  1.00000
E14   E   0.56754  0.06754  0.50000
E15   E   0.59954  0.33291  0.97111
E16   E   0.66709  0.26663  0.63778
E17   E   0.73337  0.40046  0.30444
E18   E   0.93246  0.50000  0.16666
loop_
