data_zmc_P-6m2  hall_number: 481, V_con: 5, EC_con: 5
_audit_creation_date              2025-03-06
_audit_creation_method            'MOFbuilder_1.0'
_symmetry_space_group_name_H-M    'P1'
_symmetry_Int_Tables_number       1
_symmetry_cell_setting            triclinic
loop_
_symmetry_equiv_pos_as_xyz
  x,y,z
_cell_length_a                    30.0
_cell_length_b                    30.0
_cell_length_c                    26.33
_cell_angle_alpha                 90.0
_cell_angle_beta                  90.0
_cell_angle_gamma                 120.0
loop_
_atom_site_label
_atom_site_type_symbol
_atom_site_fract_x
_atom_site_fract_y
_atom_site_fract_z
V1    V   0.00000  0.33334  0.00000
V2    V   0.00000  0.66666  0.00000
V3    V   0.33334  0.00000  0.00000
V4    V   0.33334  0.33334  0.00000
V5    V   0.66666  0.00000  0.00000
V6    V   0.66666  0.66666  0.00000
EC1    EC   0.22222  0.44445  0.31010
EC2    EC   0.22222  0.44445  0.68990
EC3    EC   0.22222  0.77777  0.31010
EC4    EC   0.22222  0.77777  0.68990
EC5    EC   0.22223  0.44445  0.31010
EC6    EC   0.22223  0.44445  0.68990
EC7    EC   0.22223  0.77778  0.31010
EC8    EC   0.22223  0.77778  0.68990
EC9    EC   0.55555  0.77777  0.31010
EC10   EC   0.55555  0.77777  0.68990
EC11   EC   0.55555  0.77778  0.31010
EC12   EC   0.55555  0.77778  0.68990
E1    E   0.00000  0.50000  0.00000
E2    E   0.11111  0.38889  0.15505
E3    E   0.11111  0.38889  0.84495
E4    E   0.11111  0.72222  0.15505
E5    E   0.11111  0.72222  0.84495
E6    E   0.16667  0.33334  0.00000
E7    E   0.16667  0.83333  0.00000
E8    E   0.22222  0.44445  0.50000
E9    E   0.22222  0.61111  0.31010
E10   E   0.22222  0.61111  0.68990
E11   E   0.22222  0.61111  0.31010
E12   E   0.22222  0.61111  0.68990
E13   E   0.22222  0.77777  0.50000
E14   E   0.22223  0.44445  0.50000
E15   E   0.22223  0.77778  0.50000
E16   E   0.27778  0.38889  0.15505
E17   E   0.27778  0.38889  0.84495
E18   E   0.27778  0.88889  0.15505
E19   E   0.27778  0.88889  0.84495
E20   E   0.33334  0.16667  0.00000
E21   E   0.38889  0.61111  0.31010
E22   E   0.38889  0.61111  0.68990
E23   E   0.38889  0.77778  0.31010
E24   E   0.38889  0.77778  0.68990
E25   E   0.38889  0.61111  0.31010
E26   E   0.38889  0.61111  0.68990
E27   E   0.38889  0.77778  0.31010
E28   E   0.38889  0.77778  0.68990
E29   E   0.50000  0.00000  0.00000
E30   E   0.50000  0.50000  0.00000
E31   E   0.55555  0.77777  0.50000
E32   E   0.55555  0.77778  0.50000
E33   E   0.61111  0.72222  0.15505
E34   E   0.61111  0.72222  0.84495
E35   E   0.61111  0.88889  0.15505
E36   E   0.61111  0.88889  0.84495
E37   E   0.66666  0.83333  0.00000
E38   E   0.83333  0.16667  0.00000
E39   E   0.83333  0.66666  0.00000
loop_
