data_zmd_P63/mmc  hall_number: 488, V_con: 5, EC_con: 5
_audit_creation_date              2025-03-06
_audit_creation_method            'MOFbuilder_1.0'
_symmetry_space_group_name_H-M    'P1'
_symmetry_Int_Tables_number       1
_symmetry_cell_setting            triclinic
loop_
_symmetry_equiv_pos_as_xyz
  x,y,z
_cell_length_a                    29.9999
_cell_length_b                    29.9999
_cell_length_c                    52.6601
_cell_angle_alpha                 90.0
_cell_angle_beta                  90.0
_cell_angle_gamma                 120.0
loop_
_atom_site_label
_atom_site_type_symbol
_atom_site_fract_x
_atom_site_fract_y
_atom_site_fract_z
V1    V   0.11111  0.22222  0.65505
V2    V   0.11111  0.22222  0.84495
V3    V   0.11111  0.88889  0.65505
V4    V   0.11111  0.88889  0.84495
V5    V   0.22222  0.11111  0.15505
V6    V   0.22222  0.11111  0.34495
V7    V   0.77778  0.88889  0.65505
V8    V   0.77778  0.88889  0.84495
V9    V   0.88889  0.11111  0.15505
V10   V   0.88889  0.11111  0.34495
V11   V   0.88889  0.77778  0.15505
V12   V   0.88889  0.77778  0.34495
EC1    EC   0.00000  0.33333  0.00000
EC2    EC   0.00000  0.33333  0.50000
EC3    EC   0.00000  0.66667  0.00000
EC4    EC   0.00000  0.66667  0.50000
EC5    EC   0.33333  0.00000  0.00000
EC6    EC   0.33333  0.00000  0.50000
EC7    EC   0.33333  0.33333  0.00000
EC8    EC   0.33333  0.33333  0.50000
EC9    EC   0.66667  0.00000  0.00000
EC10   EC   0.66667  0.00000  0.50000
EC11   EC   0.66667  0.66667  0.00000
EC12   EC   0.66667  0.66667  0.50000
E1    E   0.00000  0.50000  0.00000
E2    E   0.00000  0.50000  0.50000
E3    E   0.05555  0.11111  0.15505
E4    E   0.05555  0.11111  0.34495
E5    E   0.05555  0.94444  0.15505
E6    E   0.05555  0.94444  0.34495
E7    E   0.05556  0.11111  0.15505
E8    E   0.05556  0.11111  0.34495
E9    E   0.05556  0.27778  0.57753
E10   E   0.05556  0.27778  0.92247
E11   E   0.05556  0.77778  0.57753
E12   E   0.05556  0.77778  0.92247
E13   E   0.05556  0.94445  0.15505
E14   E   0.05556  0.94445  0.34495
E15   E   0.11111  0.05555  0.65505
E16   E   0.11111  0.05555  0.84495
E17   E   0.11111  0.05556  0.65505
E18   E   0.11111  0.05556  0.84495
E19   E   0.11111  0.22222  0.75000
E20   E   0.11111  0.88889  0.75000
E21   E   0.16666  0.33333  0.00000
E22   E   0.16666  0.33333  0.50000
E23   E   0.16666  0.83333  0.00000
E24   E   0.16666  0.83333  0.50000
E25   E   0.16667  0.33333  0.00000
E26   E   0.16667  0.33333  0.50000
E27   E   0.16667  0.83334  0.00000
E28   E   0.16667  0.83334  0.50000
E29   E   0.22222  0.11111  0.25000
E30   E   0.22222  0.27778  0.57753
E31   E   0.22222  0.27778  0.92247
E32   E   0.22222  0.94444  0.57753
E33   E   0.22222  0.94444  0.92247
E34   E   0.27778  0.05556  0.07753
E35   E   0.27778  0.05556  0.42247
E36   E   0.27778  0.22222  0.07753
E37   E   0.27778  0.22222  0.42247
E38   E   0.33333  0.16666  0.00000
E39   E   0.33333  0.16666  0.50000
E40   E   0.33333  0.16667  0.00000
E41   E   0.33333  0.16667  0.50000
E42   E   0.50000  0.00000  0.00000
E43   E   0.50000  0.00000  0.50000
E44   E   0.50000  0.50000  0.00000
E45   E   0.50000  0.50000  0.50000
E46   E   0.66667  0.83333  0.00000
E47   E   0.66667  0.83333  0.50000
E48   E   0.66667  0.83334  0.00000
E49   E   0.66667  0.83334  0.50000
E50   E   0.72222  0.77778  0.57753
E51   E   0.72222  0.77778  0.92247
E52   E   0.72222  0.94444  0.57753
E53   E   0.72222  0.94444  0.92247
E54   E   0.77778  0.05556  0.07753
E55   E   0.77778  0.05556  0.42247
E56   E   0.77778  0.72222  0.07753
E57   E   0.77778  0.72222  0.42247
E58   E   0.77778  0.88889  0.75000
E59   E   0.83333  0.16666  0.00000
E60   E   0.83333  0.16666  0.50000
E61   E   0.83333  0.66667  0.00000
E62   E   0.83333  0.66667  0.50000
E63   E   0.83334  0.16667  0.00000
E64   E   0.83334  0.16667  0.50000
E65   E   0.83334  0.66667  0.00000
E66   E   0.83334  0.66667  0.50000
E67   E   0.88889  0.11111  0.25000
E68   E   0.88889  0.77778  0.25000
E69   E   0.88889  0.94444  0.15505
E70   E   0.88889  0.94444  0.34495
E71   E   0.88889  0.94445  0.15505
E72   E   0.88889  0.94445  0.34495
E73   E   0.94444  0.05555  0.65505
E74   E   0.94444  0.05555  0.84495
E75   E   0.94444  0.22222  0.07753
E76   E   0.94444  0.22222  0.42247
E77   E   0.94444  0.72222  0.07753
E78   E   0.94444  0.72222  0.42247
E79   E   0.94444  0.88889  0.65505
E80   E   0.94444  0.88889  0.84495
E81   E   0.94445  0.05556  0.65505
E82   E   0.94445  0.05556  0.84495
E83   E   0.94445  0.88889  0.65505
E84   E   0.94445  0.88889  0.84495
loop_
