data_zzz_P4/n:2  hall_number: 360, V_con: 6, EC_con: 3
_audit_creation_date              2025-03-06
_audit_creation_method            'MOFbuilder_1.0'
_symmetry_space_group_name_H-M    'P1'
_symmetry_Int_Tables_number       1
_symmetry_cell_setting            triclinic
loop_
_symmetry_equiv_pos_as_xyz
  x,y,z
_cell_length_a                    32.673899999999996
_cell_length_b                    32.673899999999996
_cell_length_c                    11.536999999999999
_cell_angle_alpha                 90.0
_cell_angle_beta                  90.0
_cell_angle_gamma                 90.0
loop_
_atom_site_label
_atom_site_type_symbol
_atom_site_fract_x
_atom_site_fract_y
_atom_site_fract_z
V1    V   0.00000  0.00000  0.50000
V2    V   0.00000  0.50000  0.50000
V3    V   0.50000  0.00000  0.50000
V4    V   0.50000  0.50000  0.50000
EC1    EC   0.00032  0.25000  0.00000
EC2    EC   0.25000  0.00032  0.00000
EC3    EC   0.25000  0.49968  0.00000
EC4    EC   0.49968  0.25000  0.00000
EC5    EC   0.50032  0.75000  0.00000
EC6    EC   0.75000  0.50032  0.00000
EC7    EC   0.75000  0.99968  0.00000
EC8    EC   0.99968  0.75000  0.00000
E1    E   0.00016  0.12500  0.25000
E2    E   0.00016  0.12500  0.75000
E3    E   0.00016  0.37500  0.25000
E4    E   0.12500  0.00016  0.25000
E5    E   0.12500  0.49984  0.25000
E6    E   0.12500  0.49984  0.75000
E7    E   0.37500  0.00016  0.25000
E8    E   0.37500  0.00016  0.75000
E9    E   0.37500  0.49984  0.25000
E10   E   0.49984  0.12500  0.25000
E11   E   0.49984  0.37500  0.25000
E12   E   0.49984  0.37500  0.75000
E13   E   0.50016  0.62500  0.25000
E14   E   0.50016  0.62500  0.75000
E15   E   0.50016  0.87500  0.75000
E16   E   0.62500  0.50016  0.75000
E17   E   0.62500  0.99984  0.25000
E18   E   0.62500  0.99984  0.75000
E19   E   0.87500  0.50016  0.25000
E20   E   0.87500  0.50016  0.75000
E21   E   0.87500  0.99984  0.75000
E22   E   0.99984  0.62500  0.75000
E23   E   0.99984  0.87500  0.25000
E24   E   0.99984  0.87500  0.75000
loop_
