data_
_audit_creation_date              2024-08-13
_audit_creation_method            'VESTA'
_symmetry_space_group_name_H-M    'P1'
_symmetry_Int_Tables_number       1
_symmetry_cell_setting            triclinic
loop_
_symmetry_equiv_pos_as_xyz
  x,y,z
_cell_length_a                    16.733000
_cell_length_b                    13.038000
_cell_length_c                    6.812000
_cell_angle_alpha                 90.000000
_cell_angle_beta                  90.000000
_cell_angle_gamma                 90.000000
loop_
_atom_site_label
_atom_site_type_symbol
_atom_site_fract_x
_atom_site_fract_y
_atom_site_fract_z
_atom_site_U_iso_or_equiv
_atom_site_adp_type
_atom_site_occupancy
_atom_site_charge
Cr1        Cr   0.250000        0.750000        0.250000       0.00000  Uiso   1.00         0.00000 
H2         H    0.250000        0.611000        0.000000       0.00000  Uiso   1.00         0.00000 
H3         H    0.250000        0.889000        0.500000       0.00000  Uiso   1.00         0.00000 
X4         O    0.168000        0.661000        0.333000       0.00000  Uiso   1.00         0.00000 
X5         O    0.332000        0.661000        0.333000       0.00000  Uiso   1.00         0.00000 
O6         O    0.250000        0.686000        0.000000       0.00000  Uiso   1.00         0.00000 
X7         O    0.332000        0.839000        0.167000       0.00000  Uiso   1.00         0.00000 
X8         O    0.168000        0.839000        0.167000       0.00000  Uiso   1.00         0.00000 
O9         O    0.250000        0.814000        0.500000       0.00000  Uiso   1.00         0.00000 
loop_
_geom_bond_atom_site_label_1
_geom_bond_atom_site_label_2
_geom_bond_distance
_geom_bond_site_symmetry_2
_ccdc_geom_bond_type
X4         Cr1 1.896       .   A
X5         Cr1 1.896       .   A
O6         Cr1 1.896       .   S
X7         Cr1 1.896       .   A
X8         Cr1 1.896       .   A
O9         Cr1 1.896       .   S
O6          H2 0.978       .   S
O9          H3 0.978       .   S